<?xml version="1.0" encoding="UTF-8"?>

<!-- generated on воскресенье, 14 июня 2020 г. 12:12:03 by Eclipse SUMO netedit Version 1.5.0
<configuration xmlns:xsi="http://www.w3.org/2001/XMLSchema-instance" xsi:noNamespaceSchemaLocation="http://sumo.dlr.de/xsd/netconvertConfiguration.xsd">

    <input>
        <sumo-net-file value="cross.net.xml"/>
    </input>

    <output>
        <output-file value="cross.net.xml"/>
    </output>

    <processing>
        <geometry.min-radius.fix.railways value="false"/>
        <geometry.max-grade.fix value="false"/>
        <offset.disable-normalization value="true"/>
        <lefthand value="false"/>
    </processing>

    <junctions>
        <no-turnarounds value="true"/>
        <junctions.corner-detail value="0"/>
        <junctions.limit-turn-speed value="-1"/>
        <rectangular-lane-cut value="false"/>
    </junctions>

    <pedestrian>
        <walkingareas value="false"/>
    </pedestrian>

    <report>
        <aggregate-warnings value="5"/>
    </report>

</configuration>
-->

<net version="1.3" xmlns:xsi="http://www.w3.org/2001/XMLSchema-instance" xsi:noNamespaceSchemaLocation="http://sumo.dlr.de/xsd/net_file.xsd">

    <location netOffset="510.00,510.00" convBoundary="0.00,0.00,1020.00,725.34" origBoundary="-510.00,-510.00,510.00,510.00" projParameter="!"/>

    <edge id=":0_0" function="internal">
        <lane id=":0_0_0" index="0" speed="15.28" length="9.05" shape="508.42,517.21 508.06,514.76 507.01,513.00 505.25,511.95 502.80,511.60"/>
    </edge>
    <edge id=":0_1" function="internal">
        <lane id=":0_1_0" index="0" speed="15.28" length="14.41" shape="508.42,517.21 508.40,502.80"/>
    </edge>
    <edge id=":0_2" function="internal">
        <lane id=":0_2_0" index="0" speed="15.28" length="5.94" shape="508.42,517.21 508.96,513.36 510.01,511.60"/>
    </edge>
    <edge id=":0_12" function="internal">
        <lane id=":0_12_0" index="0" speed="15.28" length="8.26" shape="510.01,511.60 510.60,510.60 513.35,508.95 517.21,508.40"/>
    </edge>
    <edge id=":0_3" function="internal">
        <lane id=":0_3_0" index="0" speed="15.28" length="9.03" shape="517.21,511.60 514.76,511.95 513.01,513.00 511.96,514.75 511.62,517.20"/>
    </edge>
    <edge id=":0_4" function="internal">
        <lane id=":0_4_0" index="0" speed="15.28" length="14.41" shape="517.21,511.60 502.80,511.60"/>
    </edge>
    <edge id=":0_5" function="internal">
        <lane id=":0_5_0" index="0" speed="15.28" length="5.93" shape="517.21,511.60 513.35,511.05 511.60,510.00"/>
    </edge>
    <edge id=":0_13" function="internal">
        <lane id=":0_13_0" index="0" speed="15.28" length="8.26" shape="511.60,510.00 510.60,509.40 508.95,506.65 508.40,502.80"/>
    </edge>
    <edge id=":0_6" function="internal">
        <lane id=":0_6_0" index="0" speed="15.28" length="9.04" shape="511.60,502.80 511.95,505.25 513.00,507.00 514.75,508.05 517.21,508.40"/>
    </edge>
    <edge id=":0_7" function="internal">
        <lane id=":0_7_0" index="0" speed="15.28" length="14.40" shape="511.60,502.80 511.62,517.20"/>
    </edge>
    <edge id=":0_8" function="internal">
        <lane id=":0_8_0" index="0" speed="15.28" length="5.92" shape="511.60,502.80 511.05,506.65 510.01,508.39"/>
    </edge>
    <edge id=":0_14" function="internal">
        <lane id=":0_14_0" index="0" speed="15.28" length="8.27" shape="510.01,508.39 509.40,509.40 506.65,511.05 502.80,511.60"/>
    </edge>
    <edge id=":0_9" function="internal">
        <lane id=":0_9_0" index="0" speed="15.28" length="9.03" shape="502.80,508.40 505.25,508.05 507.00,507.00 508.05,505.25 508.40,502.80"/>
    </edge>
    <edge id=":0_10" function="internal">
        <lane id=":0_10_0" index="0" speed="15.28" length="14.41" shape="502.80,508.40 517.21,508.40"/>
    </edge>
    <edge id=":0_11" function="internal">
        <lane id=":0_11_0" index="0" speed="15.28" length="5.93" shape="502.80,508.40 506.65,508.95 508.40,510.00"/>
    </edge>
    <edge id=":0_15" function="internal">
        <lane id=":0_15_0" index="0" speed="15.28" length="8.27" shape="508.40,510.00 509.40,510.60 511.06,513.35 511.62,517.20"/>
    </edge>
    <edge id=":1_0" function="internal">
        <lane id=":1_0_0" index="0" speed="15.28" length="0.10" shape="10.00,511.60 10.00,511.60"/>
    </edge>
    <edge id=":1_1" function="internal">
        <lane id=":1_1_0" index="0" speed="15.28" length="2.34" shape="10.00,511.60 8.80,510.80 8.40,510.00"/>
    </edge>
    <edge id=":1_4" function="internal">
        <lane id=":1_4_0" index="0" speed="15.28" length="2.34" shape="8.40,510.00 8.80,509.20 10.00,508.40"/>
    </edge>
    <edge id=":1_2" function="internal">
        <lane id=":1_2_0" index="0" speed="15.28" length="0.10" shape="10.00,508.40 10.00,508.40"/>
    </edge>
    <edge id=":1_3" function="internal">
        <lane id=":1_3_0" index="0" speed="15.28" length="2.34" shape="10.00,508.40 11.20,509.20 11.60,510.00"/>
    </edge>
    <edge id=":1_5" function="internal">
        <lane id=":1_5_0" index="0" speed="15.28" length="2.34" shape="11.60,510.00 11.20,510.80 10.00,511.60"/>
    </edge>
    <edge id=":2_0" function="internal">
        <lane id=":2_0_0" index="0" speed="15.28" length="0.10" shape="1010.00,511.60 1010.00,511.60"/>
    </edge>
    <edge id=":2_1" function="internal">
        <lane id=":2_1_0" index="0" speed="15.28" length="2.34" shape="1010.00,511.60 1008.80,510.80 1008.40,510.00"/>
    </edge>
    <edge id=":2_4" function="internal">
        <lane id=":2_4_0" index="0" speed="15.28" length="2.34" shape="1008.40,510.00 1008.80,509.20 1010.00,508.40"/>
    </edge>
    <edge id=":2_2" function="internal">
        <lane id=":2_2_0" index="0" speed="15.28" length="0.10" shape="1010.00,508.40 1010.00,508.40"/>
    </edge>
    <edge id=":2_3" function="internal">
        <lane id=":2_3_0" index="0" speed="15.28" length="2.34" shape="1010.00,508.40 1011.20,509.20 1011.60,510.00"/>
    </edge>
    <edge id=":2_5" function="internal">
        <lane id=":2_5_0" index="0" speed="15.28" length="2.34" shape="1011.60,510.00 1011.20,510.80 1010.00,511.60"/>
    </edge>
    <edge id=":3_0" function="internal">
        <lane id=":3_0_0" index="0" speed="15.28" length="0.10" shape="508.40,10.00 508.40,10.00"/>
    </edge>
    <edge id=":3_1" function="internal">
        <lane id=":3_1_0" index="0" speed="15.28" length="2.34" shape="508.40,10.00 509.20,8.80 510.00,8.40"/>
    </edge>
    <edge id=":3_4" function="internal">
        <lane id=":3_4_0" index="0" speed="15.28" length="2.34" shape="510.00,8.40 510.80,8.80 511.60,10.00"/>
    </edge>
    <edge id=":3_2" function="internal">
        <lane id=":3_2_0" index="0" speed="15.28" length="0.10" shape="511.60,10.00 511.60,10.00"/>
    </edge>
    <edge id=":3_3" function="internal">
        <lane id=":3_3_0" index="0" speed="15.28" length="2.34" shape="511.60,10.00 510.80,11.20 510.00,11.60"/>
    </edge>
    <edge id=":3_5" function="internal">
        <lane id=":3_5_0" index="0" speed="15.28" length="2.34" shape="510.00,11.60 509.20,11.20 508.40,10.00"/>
    </edge>
    <edge id=":51_0" function="internal">
        <lane id=":51_0_0" index="0" speed="15.28" length="4.67" shape="0.00,511.60 -1.20,510.80 -1.60,510.00 -1.20,509.20 0.00,508.40"/>
    </edge>
    <edge id=":52_0" function="internal">
        <lane id=":52_0_0" index="0" speed="15.28" length="4.67" shape="1020.00,508.40 1021.20,509.20 1021.60,510.00 1021.20,510.80 1020.00,511.60"/>
    </edge>
    <edge id=":53_0" function="internal">
        <lane id=":53_0_0" index="0" speed="15.28" length="4.67" shape="508.40,0.00 509.20,-1.20 510.00,-1.60 510.80,-1.20 511.60,0.00"/>
    </edge>
    <edge id=":gneJ4_0" function="internal">
        <lane id=":gneJ4_0_0" index="0" speed="20.00" length="9.09" shape="517.33,558.84 514.87,559.21 513.10,560.27 512.04,562.04 511.68,564.49"/>
    </edge>
    <edge id=":gneJ4_1" function="internal">
        <lane id=":gneJ4_1_0" index="0" speed="20.00" length="14.46" shape="517.33,558.84 502.88,558.85"/>
    </edge>
    <edge id=":gneJ4_2" function="internal">
        <lane id=":gneJ4_2_0" index="0" speed="19.72" length="5.99" shape="517.33,558.84 513.47,558.32 511.67,557.25"/>
    </edge>
    <edge id=":gneJ4_12" function="internal">
        <lane id=":gneJ4_12_0" index="0" speed="19.72" length="8.23" shape="511.67,557.25 510.71,556.68 509.05,553.93 508.49,550.07"/>
    </edge>
    <edge id=":gneJ4_3" function="internal">
        <lane id=":gneJ4_3_0" index="0" speed="15.55" length="9.04" shape="511.69,550.06 512.05,552.52 513.10,554.27 514.86,555.31 517.31,555.64"/>
    </edge>
    <edge id=":gneJ4_4" function="internal">
        <lane id=":gneJ4_4_0" index="0" speed="15.55" length="14.43" shape="511.69,550.06 511.68,564.49"/>
    </edge>
    <edge id=":gneJ4_5" function="internal">
        <lane id=":gneJ4_5_0" index="0" speed="15.55" length="5.97" shape="511.69,550.06 511.15,553.92 510.09,555.70"/>
    </edge>
    <edge id=":gneJ4_13" function="internal">
        <lane id=":gneJ4_13_0" index="0" speed="15.55" length="8.25" shape="510.09,555.70 509.50,556.68 506.74,558.32 502.88,558.85"/>
    </edge>
    <edge id=":gneJ4_6" function="internal">
        <lane id=":gneJ4_6_0" index="0" speed="19.72" length="9.03" shape="502.89,555.65 505.35,555.31 507.10,554.27 508.15,552.52 508.49,550.07"/>
    </edge>
    <edge id=":gneJ4_7" function="internal">
        <lane id=":gneJ4_7_0" index="0" speed="20.00" length="14.42" shape="502.89,555.65 517.31,555.64"/>
    </edge>
    <edge id=":gneJ4_8" function="internal">
        <lane id=":gneJ4_8_0" index="0" speed="20.00" length="5.88" shape="502.89,555.65 506.75,556.22 508.45,557.25"/>
    </edge>
    <edge id=":gneJ4_14" function="internal">
        <lane id=":gneJ4_14_0" index="0" speed="20.00" length="8.33" shape="508.45,557.25 509.50,557.89 511.14,560.64 511.68,564.49"/>
    </edge>
    <edge id=":gneJ4_9" function="internal">
        <lane id=":gneJ4_9_0" index="0" speed="20.00" length="9.05" shape="508.48,564.48 508.14,562.03 507.09,560.27 505.34,559.21 502.88,558.85"/>
    </edge>
    <edge id=":gneJ4_10" function="internal">
        <lane id=":gneJ4_10_0" index="0" speed="19.72" length="14.41" shape="508.48,564.48 508.49,550.07"/>
    </edge>
    <edge id=":gneJ4_11" function="internal">
        <lane id=":gneJ4_11_0" index="0" speed="20.00" length="5.90" shape="508.48,564.48 509.04,560.64 510.08,558.91"/>
    </edge>
    <edge id=":gneJ4_15" function="internal">
        <lane id=":gneJ4_15_0" index="0" speed="20.00" length="8.32" shape="510.08,558.91 510.71,557.88 513.46,556.22 517.31,555.64"/>
    </edge>

    <edge id="1i" from="1" to="0" priority="78">
        <lane id="1i_0" index="0" speed="19.44" length="492.80" shape="10.00,508.40 502.80,508.40"/>
    </edge>
    <edge id="1o" from="0" to="1" priority="46">
        <lane id="1o_0" index="0" speed="11.11" length="492.80" shape="502.80,511.60 10.00,511.60"/>
    </edge>
    <edge id="2i" from="2" to="0" priority="78">
        <lane id="2i_0" index="0" speed="19.44" length="492.79" shape="1010.00,511.60 517.21,511.60"/>
    </edge>
    <edge id="2o" from="0" to="2" priority="46">
        <lane id="2o_0" index="0" speed="11.11" length="492.79" shape="517.21,508.40 1010.00,508.40"/>
    </edge>
    <edge id="3i" from="3" to="0" priority="78">
        <lane id="3i_0" index="0" speed="19.44" length="492.80" shape="511.60,10.00 511.60,502.80"/>
    </edge>
    <edge id="3o" from="0" to="3" priority="46">
        <lane id="3o_0" index="0" speed="11.11" length="492.80" shape="508.40,502.80 508.40,10.00"/>
    </edge>
    <edge id="4i" from="gneJ4" to="0" priority="-1">
        <lane id="4i_0" index="0" speed="19.44" length="32.86" shape="508.49,550.07 508.42,517.21"/>
    </edge>
    <edge id="4o" from="0" to="gneJ4" priority="-1">
        <lane id="4o_0" index="0" speed="11.11" length="32.86" shape="511.62,517.20 511.69,550.06"/>
    </edge>
    <edge id="51i" from="1" to="51" priority="78">
        <lane id="51i_0" index="0" speed="19.44" length="10.00" shape="10.00,511.60 0.00,511.60"/>
    </edge>
    <edge id="51o" from="51" to="1" priority="46">
        <lane id="51o_0" index="0" speed="11.11" length="10.00" shape="0.00,508.40 10.00,508.40"/>
    </edge>
    <edge id="52i" from="2" to="52" priority="78">
        <lane id="52i_0" index="0" speed="19.44" length="10.00" shape="1010.00,508.40 1020.00,508.40"/>
    </edge>
    <edge id="52o" from="52" to="2" priority="46">
        <lane id="52o_0" index="0" speed="11.11" length="10.00" shape="1020.00,511.60 1010.00,511.60"/>
    </edge>
    <edge id="53i" from="3" to="53" priority="78">
        <lane id="53i_0" index="0" speed="19.44" length="10.00" shape="508.40,10.00 508.40,0.00"/>
    </edge>
    <edge id="53o" from="53" to="3" priority="46">
        <lane id="53o_0" index="0" speed="11.11" length="10.00" shape="511.60,0.00 511.60,10.00"/>
    </edge>
    <edge id="top1i" from="gneJ6" to="gneJ4" priority="-1">
        <lane id="top1i_0" index="0" speed="20.00" length="489.65" shape="13.25,552.97 502.89,555.65"/>
    </edge>
    <edge id="top1o" from="gneJ4" to="gneJ6" priority="-1">
        <lane id="top1o_0" index="0" speed="20.00" length="489.65" shape="502.88,558.85 13.23,556.17"/>
    </edge>
    <edge id="top2i" from="gneJ5" to="gneJ4" priority="-1">
        <lane id="top2i_0" index="0" speed="20.00" length="489.40" shape="1006.72,555.69 517.33,558.84"/>
    </edge>
    <edge id="top2o" from="gneJ4" to="gneJ5" priority="-1">
        <lane id="top2o_0" index="0" speed="20.00" length="489.40" shape="517.31,555.64 1006.70,552.49"/>
    </edge>
    <edge id="updown" from="gneJ7" to="gneJ4" priority="-1">
        <lane id="updown_0" index="0" speed="20.00" length="160.86" shape="507.77,725.33 508.48,564.48"/>
    </edge>
    <edge id="upup" from="gneJ4" to="gneJ7" priority="-1">
        <lane id="upup_0" index="0" speed="20.00" length="160.86" shape="511.68,564.49 510.97,725.35"/>
    </edge>

    <tlLogic id="0" type="static" programID="0" offset="0">
        <phase duration="40" state="rrrGGgrrrGGg"/>
        <phase duration="5"  state="rrryyyrrryyy"/>
        <phase duration="40" state="GGgrrrGGgrrr"/>
        <phase duration="5"  state="yyyrrryyyrrr"/>
    </tlLogic>
    <tlLogic id="gneJ4" type="static" programID="2" offset="0">
        <phase duration="42" state="rrrGGgrrrGGg"/>
        <phase duration="3"  state="rrryyyrrryyy"/>
        <phase duration="42" state="GGgrrrGGgrrr"/>
        <phase duration="3"  state="yyyrrryyyrrr"/>
    </tlLogic>

    <junction id="0" type="traffic_light" x="510.00" y="510.00" incLanes="4i_0 2i_0 3i_0 1i_0" intLanes=":0_0_0 :0_1_0 :0_12_0 :0_3_0 :0_4_0 :0_13_0 :0_6_0 :0_7_0 :0_14_0 :0_9_0 :0_10_0 :0_15_0" shape="506.82,517.21 513.22,517.20 517.21,513.20 517.21,506.80 513.20,502.80 506.80,502.80 502.80,506.80 502.80,513.20">
        <request index="0"  response="000000010000" foes="000100010000" cont="0"/>
        <request index="1"  response="111000110000" foes="111100110000" cont="0"/>
        <request index="2"  response="110011110000" foes="110011110000" cont="1"/>
        <request index="3"  response="000000000000" foes="100010000000" cont="0"/>
        <request index="4"  response="000100000100" foes="100110000111" cont="0"/>
        <request index="5"  response="011100000100" foes="011110000110" cont="1"/>
        <request index="6"  response="010000000000" foes="010000000100" cont="0"/>
        <request index="7"  response="110000111000" foes="110000111100" cont="0"/>
        <request index="8"  response="110000110011" foes="110000110011" cont="1"/>
        <request index="9"  response="000000000000" foes="000000100010" cont="0"/>
        <request index="10" response="000100000100" foes="000111100110" cont="0"/>
        <request index="11" response="000100011100" foes="000110011110" cont="1"/>
    </junction>
    <junction id="1" type="priority" x="10.00" y="510.00" incLanes="1o_0 51o_0" intLanes=":1_0_0 :1_4_0 :1_2_0 :1_5_0" shape="10.00,513.20 10.00,506.80 10.00,513.20">
        <request index="0" response="0000" foes="1000" cont="0"/>
        <request index="1" response="0100" foes="0100" cont="1"/>
        <request index="2" response="0000" foes="0010" cont="0"/>
        <request index="3" response="0001" foes="0001" cont="1"/>
    </junction>
    <junction id="2" type="priority" x="1010.00" y="510.00" incLanes="52o_0 2o_0" intLanes=":2_0_0 :2_4_0 :2_2_0 :2_5_0" shape="1010.00,513.20 1010.00,506.80 1010.00,513.20">
        <request index="0" response="0000" foes="1000" cont="0"/>
        <request index="1" response="0100" foes="0100" cont="1"/>
        <request index="2" response="0000" foes="0010" cont="0"/>
        <request index="3" response="0001" foes="0001" cont="1"/>
    </junction>
    <junction id="3" type="priority" x="510.00" y="10.00" incLanes="3o_0 53o_0" intLanes=":3_0_0 :3_4_0 :3_2_0 :3_5_0" shape="506.80,10.00 513.20,10.00 506.80,10.00">
        <request index="0" response="0000" foes="1000" cont="0"/>
        <request index="1" response="0100" foes="0100" cont="1"/>
        <request index="2" response="0000" foes="0010" cont="0"/>
        <request index="3" response="0001" foes="0001" cont="1"/>
    </junction>
    <junction id="51" type="priority" x="0.00" y="510.00" incLanes="51i_0" intLanes=":51_0_0" shape="0.00,510.00 0.00,513.20 0.00,510.00">
        <request index="0" response="0" foes="0" cont="0"/>
    </junction>
    <junction id="52" type="priority" x="1020.00" y="510.00" incLanes="52i_0" intLanes=":52_0_0" shape="1020.00,510.00 1020.00,506.80 1020.00,510.00">
        <request index="0" response="0" foes="0" cont="0"/>
    </junction>
    <junction id="53" type="priority" x="510.00" y="0.00" incLanes="53i_0" intLanes=":53_0_0" shape="510.00,0.00 506.80,0.00 510.00,0.00">
        <request index="0" response="0" foes="0" cont="0"/>
    </junction>
    <junction id="gneJ4" type="traffic_light" x="510.11" y="557.29" incLanes="top2i_0 4o_0 top1i_0 updown_0" intLanes=":gneJ4_0_0 :gneJ4_1_0 :gneJ4_12_0 :gneJ4_3_0 :gneJ4_4_0 :gneJ4_13_0 :gneJ4_6_0 :gneJ4_7_0 :gneJ4_14_0 :gneJ4_9_0 :gneJ4_10_0 :gneJ4_15_0" shape="517.34,560.44 517.30,554.04 513.29,550.06 506.89,550.07 502.90,554.05 502.87,560.45 506.88,564.47 513.28,564.50">
        <request index="0"  response="000000000000" foes="000100010000" cont="0"/>
        <request index="1"  response="100000100000" foes="111100110000" cont="0"/>
        <request index="2"  response="100011100000" foes="110011110000" cont="1"/>
        <request index="3"  response="000010000000" foes="100010000000" cont="0"/>
        <request index="4"  response="000110000111" foes="100110000111" cont="0"/>
        <request index="5"  response="011110000110" foes="011110000110" cont="1"/>
        <request index="6"  response="000000000000" foes="010000000100" cont="0"/>
        <request index="7"  response="100000100000" foes="110000111100" cont="0"/>
        <request index="8"  response="100000100011" foes="110000110011" cont="1"/>
        <request index="9"  response="000000000010" foes="000000100010" cont="0"/>
        <request index="10" response="000111000110" foes="000111100110" cont="0"/>
        <request index="11" response="000110011110" foes="000110011110" cont="1"/>
    </junction>
    <junction id="gneJ5" type="dead_end" x="1006.71" y="554.09" incLanes="top2o_0" intLanes="" shape="1006.71,554.09 1006.69,550.89 1006.71,554.09"/>
    <junction id="gneJ6" type="dead_end" x="13.24" y="554.57" incLanes="top1o_0" intLanes="" shape="13.24,554.57 13.22,557.77 13.24,554.57"/>
    <junction id="gneJ7" type="dead_end" x="509.37" y="725.34" incLanes="upup_0" intLanes="" shape="509.37,725.34 512.57,725.35 509.37,725.34"/>

    <junction id=":0_12_0" type="internal" x="510.01" y="511.60" incLanes=":0_2_0 3i_0" intLanes=":0_4_0 :0_5_0 :0_6_0 :0_7_0 :0_10_0 :0_11_0"/>
    <junction id=":0_13_0" type="internal" x="511.60" y="510.00" incLanes=":0_5_0 1i_0" intLanes=":0_1_0 :0_2_0 :0_7_0 :0_8_0 :0_9_0 :0_10_0"/>
    <junction id=":0_14_0" type="internal" x="510.01" y="508.39" incLanes=":0_8_0 4i_0" intLanes=":0_0_0 :0_1_0 :0_4_0 :0_5_0 :0_10_0 :0_11_0"/>
    <junction id=":0_15_0" type="internal" x="508.40" y="510.00" incLanes=":0_11_0 2i_0" intLanes=":0_1_0 :0_2_0 :0_3_0 :0_4_0 :0_7_0 :0_8_0"/>
    <junction id=":1_4_0" type="internal" x="8.40" y="510.00" incLanes=":1_1_0 51o_0" intLanes=":1_2_0"/>
    <junction id=":1_5_0" type="internal" x="11.60" y="510.00" incLanes=":1_3_0 1o_0" intLanes=":1_0_0"/>
    <junction id=":2_4_0" type="internal" x="1008.40" y="510.00" incLanes=":2_1_0 2o_0" intLanes=":2_2_0"/>
    <junction id=":2_5_0" type="internal" x="1011.60" y="510.00" incLanes=":2_3_0 52o_0" intLanes=":2_0_0"/>
    <junction id=":3_4_0" type="internal" x="510.00" y="8.40" incLanes=":3_1_0 53o_0" intLanes=":3_2_0"/>
    <junction id=":3_5_0" type="internal" x="510.00" y="11.60" incLanes=":3_3_0 3o_0" intLanes=":3_0_0"/>
    <junction id=":gneJ4_12_0" type="internal" x="511.67" y="557.25" incLanes=":gneJ4_2_0 top1i_0" intLanes=":gneJ4_4_0 :gneJ4_5_0 :gneJ4_6_0 :gneJ4_7_0 :gneJ4_10_0 :gneJ4_11_0"/>
    <junction id=":gneJ4_13_0" type="internal" x="510.09" y="555.70" incLanes=":gneJ4_5_0 updown_0" intLanes=":gneJ4_1_0 :gneJ4_2_0 :gneJ4_7_0 :gneJ4_8_0 :gneJ4_9_0 :gneJ4_10_0"/>
    <junction id=":gneJ4_14_0" type="internal" x="508.45" y="557.25" incLanes=":gneJ4_8_0 top2i_0" intLanes=":gneJ4_0_0 :gneJ4_1_0 :gneJ4_4_0 :gneJ4_5_0 :gneJ4_10_0 :gneJ4_11_0"/>
    <junction id=":gneJ4_15_0" type="internal" x="510.08" y="558.91" incLanes=":gneJ4_11_0 4o_0" intLanes=":gneJ4_1_0 :gneJ4_2_0 :gneJ4_3_0 :gneJ4_4_0 :gneJ4_7_0 :gneJ4_8_0"/>

    <connection from="1i" to="3o" fromLane="0" toLane="0" via=":0_9_0" tl="0" linkIndex="9" dir="r" state="O"/>
    <connection from="1i" to="2o" fromLane="0" toLane="0" via=":0_10_0" tl="0" linkIndex="10" dir="s" state="O"/>
    <connection from="1i" to="4o" fromLane="0" toLane="0" via=":0_11_0" tl="0" linkIndex="11" dir="l" state="o"/>
    <connection from="1o" to="51i" fromLane="0" toLane="0" via=":1_0_0" dir="s" state="M"/>
    <connection from="1o" to="1i" fromLane="0" toLane="0" via=":1_1_0" dir="t" state="m"/>
    <connection from="2i" to="4o" fromLane="0" toLane="0" via=":0_3_0" tl="0" linkIndex="3" dir="r" state="O"/>
    <connection from="2i" to="1o" fromLane="0" toLane="0" via=":0_4_0" tl="0" linkIndex="4" dir="s" state="O"/>
    <connection from="2i" to="3o" fromLane="0" toLane="0" via=":0_5_0" tl="0" linkIndex="5" dir="l" state="o"/>
    <connection from="2o" to="52i" fromLane="0" toLane="0" via=":2_2_0" dir="s" state="M"/>
    <connection from="2o" to="2i" fromLane="0" toLane="0" via=":2_3_0" dir="t" state="m"/>
    <connection from="3i" to="2o" fromLane="0" toLane="0" via=":0_6_0" tl="0" linkIndex="6" dir="r" state="o"/>
    <connection from="3i" to="4o" fromLane="0" toLane="0" via=":0_7_0" tl="0" linkIndex="7" dir="s" state="o"/>
    <connection from="3i" to="1o" fromLane="0" toLane="0" via=":0_8_0" tl="0" linkIndex="8" dir="l" state="o"/>
    <connection from="3o" to="53i" fromLane="0" toLane="0" via=":3_0_0" dir="s" state="M"/>
    <connection from="3o" to="3i" fromLane="0" toLane="0" via=":3_1_0" dir="t" state="m"/>
    <connection from="4i" to="1o" fromLane="0" toLane="0" via=":0_0_0" tl="0" linkIndex="0" dir="r" state="o"/>
    <connection from="4i" to="3o" fromLane="0" toLane="0" via=":0_1_0" tl="0" linkIndex="1" dir="s" state="o"/>
    <connection from="4i" to="2o" fromLane="0" toLane="0" via=":0_2_0" tl="0" linkIndex="2" dir="l" state="o"/>
    <connection from="4o" to="top2o" fromLane="0" toLane="0" via=":gneJ4_3_0" tl="gneJ4" linkIndex="6" dir="r" state="o"/>
    <connection from="4o" to="upup" fromLane="0" toLane="0" via=":gneJ4_4_0" tl="gneJ4" linkIndex="7" dir="s" state="o"/>
    <connection from="4o" to="top1o" fromLane="0" toLane="0" via=":gneJ4_5_0" tl="gneJ4" linkIndex="8" dir="l" state="o"/>
    <connection from="51i" to="51o" fromLane="0" toLane="0" via=":51_0_0" dir="t" state="M"/>
    <connection from="51o" to="1i" fromLane="0" toLane="0" via=":1_2_0" dir="s" state="M"/>
    <connection from="51o" to="51i" fromLane="0" toLane="0" via=":1_3_0" dir="t" state="m"/>
    <connection from="52i" to="52o" fromLane="0" toLane="0" via=":52_0_0" dir="t" state="M"/>
    <connection from="52o" to="2i" fromLane="0" toLane="0" via=":2_0_0" dir="s" state="M"/>
    <connection from="52o" to="52i" fromLane="0" toLane="0" via=":2_1_0" dir="t" state="m"/>
    <connection from="53i" to="53o" fromLane="0" toLane="0" via=":53_0_0" dir="t" state="M"/>
    <connection from="53o" to="3i" fromLane="0" toLane="0" via=":3_2_0" dir="s" state="M"/>
    <connection from="53o" to="53i" fromLane="0" toLane="0" via=":3_3_0" dir="t" state="m"/>
    <connection from="top1i" to="4i" fromLane="0" toLane="0" via=":gneJ4_6_0" tl="gneJ4" linkIndex="9" dir="r" state="O"/>
    <connection from="top1i" to="top2o" fromLane="0" toLane="0" via=":gneJ4_7_0" tl="gneJ4" linkIndex="10" dir="s" state="O"/>
    <connection from="top1i" to="upup" fromLane="0" toLane="0" via=":gneJ4_8_0" tl="gneJ4" linkIndex="11" dir="l" state="o"/>
    <connection from="top2i" to="upup" fromLane="0" toLane="0" via=":gneJ4_0_0" tl="gneJ4" linkIndex="3" dir="r" state="O"/>
    <connection from="top2i" to="top1o" fromLane="0" toLane="0" via=":gneJ4_1_0" tl="gneJ4" linkIndex="4" dir="s" state="O"/>
    <connection from="top2i" to="4i" fromLane="0" toLane="0" via=":gneJ4_2_0" tl="gneJ4" linkIndex="5" dir="l" state="o"/>
    <connection from="updown" to="top1o" fromLane="0" toLane="0" via=":gneJ4_9_0" tl="gneJ4" linkIndex="0" dir="r" state="o"/>
    <connection from="updown" to="4i" fromLane="0" toLane="0" via=":gneJ4_10_0" tl="gneJ4" linkIndex="1" dir="s" state="o"/>
    <connection from="updown" to="top2o" fromLane="0" toLane="0" via=":gneJ4_11_0" tl="gneJ4" linkIndex="2" dir="l" state="o"/>

    <connection from=":0_0" to="1o" fromLane="0" toLane="0" dir="r" state="M"/>
    <connection from=":0_1" to="3o" fromLane="0" toLane="0" dir="s" state="M"/>
    <connection from=":0_2" to="2o" fromLane="0" toLane="0" via=":0_12_0" dir="l" state="m"/>
    <connection from=":0_12" to="2o" fromLane="0" toLane="0" dir="l" state="M"/>
    <connection from=":0_3" to="4o" fromLane="0" toLane="0" dir="r" state="M"/>
    <connection from=":0_4" to="1o" fromLane="0" toLane="0" dir="s" state="M"/>
    <connection from=":0_5" to="3o" fromLane="0" toLane="0" via=":0_13_0" dir="l" state="m"/>
    <connection from=":0_13" to="3o" fromLane="0" toLane="0" dir="l" state="M"/>
    <connection from=":0_6" to="2o" fromLane="0" toLane="0" dir="r" state="M"/>
    <connection from=":0_7" to="4o" fromLane="0" toLane="0" dir="s" state="M"/>
    <connection from=":0_8" to="1o" fromLane="0" toLane="0" via=":0_14_0" dir="l" state="m"/>
    <connection from=":0_14" to="1o" fromLane="0" toLane="0" dir="l" state="M"/>
    <connection from=":0_9" to="3o" fromLane="0" toLane="0" dir="r" state="M"/>
    <connection from=":0_10" to="2o" fromLane="0" toLane="0" dir="s" state="M"/>
    <connection from=":0_11" to="4o" fromLane="0" toLane="0" via=":0_15_0" dir="l" state="m"/>
    <connection from=":0_15" to="4o" fromLane="0" toLane="0" dir="l" state="M"/>
    <connection from=":1_0" to="51i" fromLane="0" toLane="0" dir="s" state="M"/>
    <connection from=":1_1" to="1i" fromLane="0" toLane="0" via=":1_4_0" dir="t" state="m"/>
    <connection from=":1_4" to="1i" fromLane="0" toLane="0" dir="t" state="M"/>
    <connection from=":1_2" to="1i" fromLane="0" toLane="0" dir="s" state="M"/>
    <connection from=":1_3" to="51i" fromLane="0" toLane="0" via=":1_5_0" dir="t" state="m"/>
    <connection from=":1_5" to="51i" fromLane="0" toLane="0" dir="t" state="M"/>
    <connection from=":2_0" to="2i" fromLane="0" toLane="0" dir="s" state="M"/>
    <connection from=":2_1" to="52i" fromLane="0" toLane="0" via=":2_4_0" dir="t" state="m"/>
    <connection from=":2_4" to="52i" fromLane="0" toLane="0" dir="t" state="M"/>
    <connection from=":2_2" to="52i" fromLane="0" toLane="0" dir="s" state="M"/>
    <connection from=":2_3" to="2i" fromLane="0" toLane="0" via=":2_5_0" dir="t" state="m"/>
    <connection from=":2_5" to="2i" fromLane="0" toLane="0" dir="t" state="M"/>
    <connection from=":3_0" to="53i" fromLane="0" toLane="0" dir="s" state="M"/>
    <connection from=":3_1" to="3i" fromLane="0" toLane="0" via=":3_4_0" dir="t" state="m"/>
    <connection from=":3_4" to="3i" fromLane="0" toLane="0" dir="t" state="M"/>
    <connection from=":3_2" to="3i" fromLane="0" toLane="0" dir="s" state="M"/>
    <connection from=":3_3" to="53i" fromLane="0" toLane="0" via=":3_5_0" dir="t" state="m"/>
    <connection from=":3_5" to="53i" fromLane="0" toLane="0" dir="t" state="M"/>
    <connection from=":51_0" to="51o" fromLane="0" toLane="0" dir="t" state="M"/>
    <connection from=":52_0" to="52o" fromLane="0" toLane="0" dir="t" state="M"/>
    <connection from=":53_0" to="53o" fromLane="0" toLane="0" dir="t" state="M"/>
    <connection from=":gneJ4_0" to="upup" fromLane="0" toLane="0" dir="r" state="M"/>
    <connection from=":gneJ4_1" to="top1o" fromLane="0" toLane="0" dir="s" state="M"/>
    <connection from=":gneJ4_2" to="4i" fromLane="0" toLane="0" via=":gneJ4_12_0" dir="l" state="m"/>
    <connection from=":gneJ4_12" to="4i" fromLane="0" toLane="0" dir="l" state="M"/>
    <connection from=":gneJ4_3" to="top2o" fromLane="0" toLane="0" dir="r" state="M"/>
    <connection from=":gneJ4_4" to="upup" fromLane="0" toLane="0" dir="s" state="M"/>
    <connection from=":gneJ4_5" to="top1o" fromLane="0" toLane="0" via=":gneJ4_13_0" dir="l" state="m"/>
    <connection from=":gneJ4_13" to="top1o" fromLane="0" toLane="0" dir="l" state="M"/>
    <connection from=":gneJ4_6" to="4i" fromLane="0" toLane="0" dir="r" state="M"/>
    <connection from=":gneJ4_7" to="top2o" fromLane="0" toLane="0" dir="s" state="M"/>