<routes>
        <vType id="typeWE" accel="3" decel="4.5" sigma="0.5" length="5" minGap="2.5" maxSpeed="55.55" emergencyDecel="10" guiShape="passenger"/>
        <vType id="typeNS" accel="1.2" decel="4" sigma="0.8" length="7" minGap="3" maxSpeed="30" guiShape="bus"/>

        <route id="right" edges="51o 1i 2o 52i" />
        <route id="new" edges="top1i top2o" />
        <route id="left" edges="52o 2i 1o 51i" />
        <route id="down" edges="updown 4i 3o 53i" />
        <route id="up" edges="53o 3i 4o upup" />
        <route id="new2" edges="top2i upup" />
        <route id="new3" edges="top2i 4i 3o 53i" />
        
    <vehicle id="new_0" type="typeWE" route="new" depart="1"/>
    <vehicle id="new_1" type="typeWE" route="new" depart="2"/>
    <vehicle id="down_2" type="typeNS" route="down" depart="9" color="1,0,0"/>
    <vehicle id="new_3" type="typeWE" route="new" depart="12"/>
    <vehicle id="new3_4" type="typeWE" route="new3" depart="14" />
    <vehicle id="new_5" type="typeWE" route="new" depart="17"/>
    <vehicle id="right_6" type="typeWE" route="right" depart="18" />
    <vehicle id="left_7" type="typeWE" route="left" depart="38" />
    <vehicle id="left_8" type="typeWE" route="left" depart="41" />
    <vehicle id="left_9" type="typeWE" route="left" depart="42" />
    <vehicle id="up_10" type="typeNS" route="up" depart="48"/>
    <vehicle id="down_11" type="typeNS" route="down" depart="52" color="1,0,0"/>
    <vehicle id="new3_12" type="typeWE" route="new3" depart="56" />
    <vehicle id="right_13" type="typeWE" route="right" depart="61" />
    <vehicle id="new_14" type="typeWE" route="new" depart="68"/>
    <vehicle id="left_15" type="typeWE" route="left" depart="70" />
    <vehicle id="down_16" type="typeNS" route="down" depart="71" color="1,0,0"/>
    <vehicle id="right_17" type="typeWE" route="right" depart="72" />
    <vehicle id="right_18" type="typeWE" route="right" depart="74" />
    <vehicle id="left_19" type="typeWE" route="left" depart="75" />
    <vehicle id="down_20" type="typeNS" route="down" depart="77" color="1,0,0"/>
    <vehicle id="left_21" type="typeWE" route="left" depart="85" />
    <vehicle id="right_22" type="typeWE" route="right" depart="91" />
    <vehicle id="new_23" type="typeWE" route="new" depart="97"/>
    <vehicle id="right_24" type="typeWE" route="right" depart="104" />
    <vehicle id="new_25" type="typeWE" route="new" depart="116"/>
    <vehicle id="right_26" type="typeWE" route="right" depart="118" />
    <vehicle id="left_27" type="typeWE" route="left" depart="123" />
    <vehicle id="right_28" type="typeWE" route="right" depart="126" />
    <vehicle id="new_29" type="typeWE" route="new" depart="129"/>
    <vehicle id="down_30" type="typeNS" route="down" depart="136" color="1,0,0"/>
    <vehicle id="right_31" type="typeWE" route="right" depart="138" />
    <vehicle id="new_32" type="typeWE" route="new" depart="144"/>
    <vehicle id="down_33" type="typeNS" route="down" depart="146" color="1,0,0"/>
    <vehicle id="down_34" type="typeNS" route="down" depart="147" color="1,0,0"/>
    <vehicle id="new_35" type="typeWE" route="new" depart="147"/>
    <vehicle id="new_36" type="typeWE" route="new" depart="160"/>
    <vehicle id="up_37" type="typeNS" route="up" depart="161"/>
    <vehicle id="new_38" type="typeWE" route="new" depart="162"/>
    <vehicle id="left_39" type="typeWE" route="left" depart="166" />
    <vehicle id="up_40" type="typeNS" route="up" depart="166"/>
    <vehicle id="new_41" type="typeWE" route="new" depart="167"/>
    <vehicle id="left_42" type="typeWE" route="left" depart="170" />
    <vehicle id="right_43" type="typeWE" route="right" depart="197" />
    <vehicle id="new_44" type="typeWE" route="new" depart="198"/>
    <vehicle id="left_45" type="typeWE" route="left" depart="207" />
    <vehicle id="new_46" type="typeWE" route="new" depart="212"/>
    <vehicle id="right_47" type="typeWE" route="right" depart="215" />
    <vehicle id="new_48" type="typeWE" route="new" depart="229"/>
    <vehicle id="new_49" type="typeWE" route="new" depart="236"/>
    <vehicle id="up_50" type="typeNS" route="up" depart="245"/>
    <vehicle id="new2_51" type="typeWE" route="new2" depart="258" />
    <vehicle id="new3_52" type="typeWE" route="new3" depart="262" />
    <vehicle id="new_53" type="typeWE" route="new" depart="267"/>
    <vehicle id="right_54" type="typeWE" route="right" depart="276" />
    <vehicle id="right_55" type="typeWE" route="right" depart="277" />
    <vehicle id="new2_56" type="typeWE" route="new2" depart="280" />
    <vehicle id="down_57" type="typeNS" route="down" depart="282" color="1,0,0"/>
    <vehicle id="right_58" type="typeWE" route="right" depart="283" />
    <vehicle id="up_59" type="typeNS" route="up" depart="292"/>
    <vehicle id="left_60" type="typeWE" route="left" depart="300" />
    <vehicle id="new_61" type="typeWE" route="new" depart="301"/>
    <vehicle id="up_62" type="typeNS" route="up" depart="302"/>
    <vehicle id="new2_63" type="typeWE" route="new2" depart="303" />
    <vehicle id="new_64" type="typeWE" route="new" depart="303"/>
    <vehicle id="down_65" type="typeNS" route="down" depart="307" color="1,0,0"/>
    <vehicle id="left_66" type="typeWE" route="left" depart="314" />
    <vehicle id="new3_67" type="typeWE" route="new3" depart="317" />
    <vehicle id="down_68" type="typeNS" route="down" depart="318" color="1,0,0"/>
    <vehicle id="up_69" type="typeNS" route="up" depart="332"/>
    <vehicle id="down_70" type="typeNS" route="down" depart="334" color="1,0,0"/>
    <vehicle id="down_71" type="typeNS" route="down" depart="346" color="1,0,0"/>
    <vehicle id="left_72" type="typeWE" route="left" depart="350" />
    <vehicle id="left_73" type="typeWE" route="left" depart="359" />
    <vehicle id="new3_74" type="typeWE" route="new3" depart="363" />
    <vehicle id="new2_75" type="typeWE" route="new2" depart="366" />
    <vehicle id="up_76" type="typeNS" route="up" depart="366"/>
    <vehicle id="down_77" type="typeNS" route="down" depart="369" color="1,0,0"/>
    <vehicle id="new_78" type="typeWE" route="new" depart="376"/>
    <vehicle id="left_79" type="typeWE" route="left" depart="386" />
    <vehicle id="new_80" type="typeWE" route="new" depart="390"/>
    <vehicle id="down_81" type="typeNS" route="down" depart="392" color="1,0,0"/>
    <vehicle id="down_82" type="typeNS" route="down" depart="393" color="1,0,0"/>
    <vehicle id="right_83" type="typeWE" route="right" depart="401" />
    <vehicle id="left_84" type="typeWE" route="left" depart="402" />
    <vehicle id="down_85" type="typeNS" route="down" depart="403" color="1,0,0"/>
    <vehicle id="down_86" type="typeNS" route="down" depart="415" color="1,0,0"/>
    <vehicle id="new_87" type="typeWE" route="new" depart="417"/>
    <vehicle id="up_88" type="typeNS" route="up" depart="418"/>
    <vehicle id="new2_89" type="typeWE" route="new2" depart="427" />
    <vehicle id="new_90" type="typeWE" route="new" depart="434"/>
    <vehicle id="right_91" type="typeWE" route="right" depart="447" />
    <vehicle id="new_92" type="typeWE" route="new" depart="447"/>
    <vehicle id="new_93" type="typeWE" route="new" depart="448"/>
    <vehicle id="new_94" type="typeWE" route="new" depart="454"/>
    <vehicle id="new_95" type="typeWE" route="new" depart="457"/>
    <vehicle id="new2_96" type="typeWE" route="new2" depart="458" />
    <vehicle id="new_97" type="typeWE" route="new" depart="458"/>
    <vehicle id="new3_98" type="typeWE" route="new3" depart="473" />
    <vehicle id="down_99" type="typeNS" route="down" depart="475" color="1,0,0"/>
    <vehicle id="new_100" type="typeWE" route="new" depart="480"/>
    <vehicle id="up_101" type="typeNS" route="up" depart="481"/>
    <vehicle id="down_102" type="typeNS" route="down" depart="486" color="1,0,0"/>
    <vehicle id="right_103" type="typeWE" route="right" depart="489" />
    <vehicle id="right_104" type="typeWE" route="right" depart="490" />
    <vehicle id="left_105" type="typeWE" route="left" depart="494" />
    <vehicle id="left_106" type="typeWE" route="left" depart="502" />
    <vehicle id="new_107" type="typeWE" route="new" depart="517"/>
    <vehicle id="left_108" type="typeWE" route="left" depart="519" />
    <vehicle id="new2_109" type="typeWE" route="new2" depart="522" />
    <vehicle id="new3_110" type="typeWE" route="new3" depart="530" />
    <vehicle id="right_111" type="typeWE" route="right" depart="533" />
    <vehicle id="new2_112" type="typeWE" route="new2" depart="534" />
    <vehicle id="right_113" type="typeWE" route="right" depart="538" />
    <vehicle id="right_114" type="typeWE" route="right" depart="543" />
    <vehicle id="new2_115" type="typeWE" route="new2" depart="549" />
    <vehicle id="left_116" type="typeWE" route="left" depart="552" />
    <vehicle id="new_117" type="typeWE" route="new" depart="552"/>
    <vehicle id="right_118" type="typeWE" route="right" depart="558" />
    <vehicle id="new_119" type="typeWE" route="new" depart="564"/>
    <vehicle id="left_120" type="typeWE" route="left" depart="565" />
    <vehicle id="down_121" type="typeNS" route="down" depart="566" color="1,0,0"/>
    <vehicle id="right_122" type="typeWE" route="right" depart="571" />
    <vehicle id="new2_123" type="typeWE" route="new2" depart="576" />
    <vehicle id="down_124" type="typeNS" route="down" depart="581" color="1,0,0"/>
    <vehicle id="new_125" type="typeWE" route="new" depart="582"/>
    <vehicle id="up_126" type="typeNS" route="up" depart="585"/>
    <vehicle id="new_127" type="typeWE" route="new" depart="591"/>
    <vehicle id="new2_128" type="typeWE" route="new2" depart="593" />
    <vehicle id="new2_129" type="typeWE" route="new2" depart="601" />
    <vehicle id="down_130" type="typeNS" route="down" depart="608" color="1,0,0"/>
    <vehicle id="new_131" type="typeWE" route="new" depart="615"/>
    <vehicle id="new_132" type="typeWE" route="new" depart="617"/>
    <vehicle id="left_133" type="typeWE" route="left" depart="621" />
    <vehicle id="new2_134" type="typeWE" route="new2" depart="622" />
    <vehicle id="new_135" type="typeWE" route="new" depart="622"/>
    <vehicle id="new3_136" type="typeWE" route="new3" depart="623" />
    <vehicle id="up_137" type="typeNS" route="up" depart="635"/>
    <vehicle id="right_138" type="typeWE" route="right" depart="636" />
    <vehicle id="left_139" type="typeWE" route="left" depart="642" />
    <vehicle id="right_140" type="typeWE" route="right" depart="643" />
    <vehicle id="left_141" type="typeWE" route="left" depart="658" />
    <vehicle id="new2_142" type="typeWE" route="new2" depart="663" />
    <vehicle id="new_143" type="typeWE" route="new" depart="663"/>
    <vehicle id="down_144" type="typeNS" route="down" depart="669" color="1,0,0"/>
    <vehicle id="new3_145" type="typeWE" route="new3" depart="672" />
    <vehicle id="up_146" type="typeNS" route="up" depart="672"/>
    <vehicle id="new_147" type="typeWE" route="new" depart="674"/>
    <vehicle id="new_148" type="typeWE" route="new" depart="675"/>
    <vehicle id="down_149" type="typeNS" route="down" depart="676" color="1,0,0"/>
    <vehicle id="down_150" type="typeNS" route="down" depart="678" color="1,0,0"/>
    <vehicle id="right_151" type="typeWE" route="right" depart="681" />
    <vehicle id="new3_152" type="typeWE" route="new3" depart="705" />
    <vehicle id="down_153" type="typeNS" route="down" depart="715" color="1,0,0"/>
    <vehicle id="new_154" type="typeWE" route="new" depart="715"/>
    <vehicle id="new2_155" type="typeWE" route="new2" depart="717" />
    <vehicle id="new2_156" type="typeWE" route="new2" depart="718" />
    <vehicle id="left_157" type="typeWE" route="left" depart="724" />
    <vehicle id="up_158" type="typeNS" route="up" depart="728"/>
    <vehicle id="new_159" type="typeWE" route="new" depart="729"/>
    <vehicle id="up_160" type="typeNS" route="up" depart="731"/>
    <vehicle id="left_161" type="typeWE" route="left" depart="739" />
    <vehicle id="up_162" type="typeNS" route="up" depart="746"/>
    <vehicle id="new3_163" type="typeWE" route="new3" depart="749" />
    <vehicle id="new_164" type="typeWE" route="new" depart="753"/>
    <vehicle id="right_165" type="typeWE" route="right" depart="765" />
    <vehicle id="new_166" type="typeWE" route="new" depart="770"/>
    <vehicle id="up_167" type="typeNS" route="up" depart="774"/>
    <vehicle id="up_168" type="typeNS" route="up" depart="775"/>
    <vehicle id="new_169" type="typeWE" route="new" depart="785"/>
    <vehicle id="left_170" type="typeWE" route="left" depart="788" />
    <vehicle id="right_171" type="typeWE" route="right" depart="792" />
    <vehicle id="left_172" type="typeWE" route="left" depart="793" />
    <vehicle id="new_173" type="typeWE" route="new" depart="794"/>
    <vehicle id="right_174" type="typeWE" route="right" depart="800" />
    <vehicle id="new3_175" type="typeWE" route="new3" depart="800" />
    <vehicle id="left_176" type="typeWE" route="left" depart="802" />
    <vehicle id="left_177" type="typeWE" route="left" depart="803" />
    <vehicle id="left_178" type="typeWE" route="left" depart="816" />
    <vehicle id="new_179" type="typeWE" route="new" depart="816"/>
    <vehicle id="new3_180" type="typeWE" route="new3" depart="818" />
    <vehicle id="right_181" type="typeWE" route="right" depart="820" />
    <vehicle id="right_182" type="typeWE" route="right" depart="838" />
    <vehicle id="up_183" type="typeNS" route="up" depart="839"/>
    <vehicle id="left_184" type="typeWE" route="left" depart="851" />
    <vehicle id="left_185" type="typeWE" route="left" depart="852" />
    <vehicle id="new2_186" type="typeWE" route="new2" depart="860" />
    <vehicle id="down_187" type="typeNS" route="down" depart="864" color="1,0,0"/>
    <vehicle id="down_188" type="typeNS" route="down" depart="870" color="1,0,0"/>
    <vehicle id="down_189" type="typeNS" route="down" depart="885" color="1,0,0"/>
    <vehicle id="down_190" type="typeNS" route="down" depart="886" color="1,0,0"/>
    <vehicle id="right_191" type="typeWE" route="right" depart="890" />
    <vehicle id="new_192" type="typeWE" route="new" depart="890"/>
    <vehicle id="up_193" type="typeNS" route="up" depart="892"/>
    <vehicle id="right_194" type="typeWE" route="right" depart="897" />
    <vehicle id="down_195" type="typeNS" route="down" depart="900" color="1,0,0"/>
    <vehicle id="new_196" type="typeWE" route="new" depart="907"/>
    <vehicle id="new_197" type="typeWE" route="new" depart="914"/>
    <vehicle id="up_198" type="typeNS" route="up" depart="921"/>
    <vehicle id="new_199" type="typeWE" route="new" depart="932"/>
    <vehicle id="left_200" type="typeWE" route="left" depart="935" />
    <vehicle id="right_201" type="typeWE" route="right" depart="938" />
    <vehicle id="new_202" type="typeWE" route="new" depart="945"/>
    <vehicle id="new_203" type="typeWE" route="new" depart="947"/>
    <vehicle id="new2_204" type="typeWE" route="new2" depart="962" />
    <vehicle id="down_205" type="typeNS" route="down" depart="964" color="1,0,0"/>
    <vehicle id="up_206" type="typeNS" route="up" depart="964"/>
    <vehicle id="new_207" type="typeWE" route="new" depart="966"/>
    <vehicle id="left_208" type="typeWE" route="left" depart="968" />
    <vehicle id="left_209" type="typeWE" route="left" depart="972" />
    <vehicle id="left_210" type="typeWE" route="left" depart="979" />
    <vehicle id="right_211" type="typeWE" route="right" depart="982" />
    <vehicle id="left_212" type="typeWE" route="left" depart="987" />
    <vehicle id="new_213" type="typeWE" route="new" depart="987"/>
    <vehicle id="new2_214" type="typeWE" route="new2" depart="991" />
    <vehicle id="left_215" type="typeWE" route="left" depart="993" />
    <vehicle id="right_216" type="typeWE" route="right" depart="1006" />
    <vehicle id="up_217" type="typeNS" route="up" depart="1014"/>
    <vehicle id="left_218" type="typeWE" route="left" depart="1016" />
    <vehicle id="up_219" type="typeNS" route="up" depart="1018"/>
    <vehicle id="up_220" type="typeNS" route="up" depart="1024"/>
    <vehicle id="down_221" type="typeNS" route="down" depart="1025" color="1,0,0"/>
    <vehicle id="right_222" type="typeWE" route="right" depart="1027" />
    <vehicle id="new_223" type="typeWE" route="new" depart="1030"/>
    <vehicle id="left_224" type="typeWE" route="left" depart="1032" />
    <vehicle id="right_225" type="typeWE" route="right" depart="1034" />
    <vehicle id="new_226" type="typeWE" route="new" depart="1034"/>
    <vehicle id="new2_227" type="typeWE" route="new2" depart="1043" />
    <vehicle id="new_228" type="typeWE" route="new" depart="1043"/>
    <vehicle id="right_229" type="typeWE" route="right" depart="1048" />
    <vehicle id="new_230" type="typeWE" route="new" depart="1050"/>
    <vehicle id="up_231" type="typeNS" route="up" depart="1055"/>
    <vehicle id="left_232" type="typeWE" route="left" depart="1059" />
    <vehicle id="new_233" type="typeWE" route="new" depart="1059"/>
    <vehicle id="new_234" type="typeWE" route="new" depart="1061"/>
    <vehicle id="new_235" type="typeWE" route="new" depart="1062"/>
    <vehicle id="up_236" type="typeNS" route="up" depart="1063"/>
    <vehicle id="left_237" type="typeWE" route="left" depart="1072" />
    <vehicle id="down_238" type="typeNS" route="down" depart="1079" color="1,0,0"/>
    <vehicle id="new3_239" type="typeWE" route="new3" depart="1084" />
    <vehicle id="new_240" type="typeWE" route="new" depart="1085"/>
    <vehicle id="down_241" type="typeNS" route="down" depart="1093" color="1,0,0"/>
    <vehicle id="new_242" type="typeWE" route="new" depart="1101"/>
    <vehicle id="new_243" type="typeWE" route="new" depart="1103"/>
    <vehicle id="right_244" type="typeWE" route="right" depart="1107" />
    <vehicle id="left_245" type="typeWE" route="left" depart="1120" />
    <vehicle id="left_246" type="typeWE" route="left" depart="1122" />
    <vehicle id="up_247" type="typeNS" route="up" depart="1129"/>
    <vehicle id="right_248" type="typeWE" route="right" depart="1134" />
    <vehicle id="up_249" type="typeNS" route="up" depart="1135"/>
    <vehicle id="new3_250" type="typeWE" route="new3" depart="1140" />
    <vehicle id="new3_251" type="typeWE" route="new3" depart="1145" />
    <vehicle id="right_252" type="typeWE" route="right" depart="1146" />
    <vehicle id="left_253" type="typeWE" route="left" depart="1151" />
    <vehicle id="new_254" type="typeWE" route="new" depart="1151"/>
    <vehicle id="up_255" type="typeNS" route="up" depart="1162"/>
    <vehicle id="new2_256" type="typeWE" route="new2" depart="1174" />
    <vehicle id="right_257" type="typeWE" route="right" depart="1177" />
    <vehicle id="right_258" type="typeWE" route="right" depart="1180" />
    <vehicle id="left_259" type="typeWE" route="left" depart="1182" />
    <vehicle id="up_260" type="typeNS" route="up" depart="1186"/>
    <vehicle id="up_261" type="typeNS" route="up" depart="1193"/>
    <vehicle id="new_262" type="typeWE" route="new" depart="1195"/>
    <vehicle id="new_263" type="typeWE" route="new" depart="1199"/>
    <vehicle id="left_264" type="typeWE" route="left" depart="1212" />
    <vehicle id="down_265" type="typeNS" route="down" depart="1213" color="1,0,0"/>
    <vehicle id="new_266" type="typeWE" route="new" depart="1217"/>
    <vehicle id="up_267" type="typeNS" route="up" depart="1220"/>
    <vehicle id="new_268" type="typeWE" route="new" depart="1228"/>
    <vehicle id="left_269" type="typeWE" route="left" depart="1230" />
    <vehicle id="up_270" type="typeNS" route="up" depart="1236"/>
    <vehicle id="left_271" type="typeWE" route="left" depart="1237" />
    <vehicle id="new3_272" type="typeWE" route="new3" depart="1243" />
    <vehicle id="left_273" type="typeWE" route="left" depart="1252" />
    <vehicle id="right_274" type="typeWE" route="right" depart="1253" />
    <vehicle id="new_275" type="typeWE" route="new" depart="1253"/>
    <vehicle id="down_276" type="typeNS" route="down" depart="1262" color="1,0,0"/>
    <vehicle id="new2_277" type="typeWE" route="new2" depart="1268" />
    <vehicle id="left_278" type="typeWE" route="left" depart="1268" />
    <vehicle id="left_279" type="typeWE" route="left" depart="1271" />
    <vehicle id="down_280" type="typeNS" route="down" depart="1272" color="1,0,0"/>
    <vehicle id="new_281" type="typeWE" route="new" depart="1275"/>
    <vehicle id="new_282" type="typeWE" route="new" depart="1280"/>
    <vehicle id="right_283" type="typeWE" route="right" depart="1282" />
    <vehicle id="new3_284" type="typeWE" route="new3" depart="1283" />
    <vehicle id="new_285" type="typeWE" route="new" depart="1296"/>
    <vehicle id="left_286" type="typeWE" route="left" depart="1300" />
    <vehicle id="left_287" type="typeWE" route="left" depart="1306" />
    <vehicle id="new3_288" type="typeWE" route="new3" depart="1309" />
    <vehicle id="new_289" type="typeWE" route="new" depart="1311"/>
    <vehicle id="right_290" type="typeWE" route="right" depart="1312" />
    <vehicle id="left_291" type="typeWE" route="left" depart="1317" />
    <vehicle id="down_292" type="typeNS" route="down" depart="1319" color="1,0,0"/>
    <vehicle id="new_293" type="typeWE" route="new" depart="1326"/>
    <vehicle id="up_294" type="typeNS" route="up" depart="1331"/>
    <vehicle id="new3_295" type="typeWE" route="new3" depart="1333" />
    <vehicle id="left_296" type="typeWE" route="left" depart="1335" />
    <vehicle id="new_297" type="typeWE" route="new" depart="1341"/>
    <vehicle id="left_298" type="typeWE" route="left" depart="1344" />
    <vehicle id="right_299" type="typeWE" route="right" depart="1353" />
    <vehicle id="new3_300" type="typeWE" route="new3" depart="1353" />
    <vehicle id="down_301" type="typeNS" route="down" depart="1360" color="1,0,0"/>
    <vehicle id="left_302" type="typeWE" route="left" depart="1373" />
    <vehicle id="new_303" type="typeWE" route="new" depart="1377"/>
    <vehicle id="new3_304" type="typeWE" route="new3" depart="1387" />
    <vehicle id="left_305" type="typeWE" route="left" depart="1394" />
    <vehicle id="new_306" type="typeWE" route="new" depart="1396"/>
    <vehicle id="new_307" type="typeWE" route="new" depart="1400"/>
    <vehicle id="new3_308" type="typeWE" route="new3" depart="1401" />
    <vehicle id="new_309" type="typeWE" route="new" depart="1406"/>
    <vehicle id="new2_310" type="typeWE" route="new2" depart="1407" />
    <vehicle id="left_311" type="typeWE" route="left" depart="1413" />
    <vehicle id="new_312" type="typeWE" route="new" depart="1426"/>
    <vehicle id="left_313" type="typeWE" route="left" depart="1430" />
    <vehicle id="down_314" type="typeNS" route="down" depart="1431" color="1,0,0"/>
    <vehicle id="up_315" type="typeNS" route="up" depart="1435"/>
    <vehicle id="new_316" type="typeWE" route="new" depart="1436"/>
    <vehicle id="new_317" type="typeWE" route="new" depart="1445"/>
    <vehicle id="right_318" type="typeWE" route="right" depart="1450" />
    <vehicle id="new_319" type="typeWE" route="new" depart="1455"/>
    <vehicle id="right_320" type="typeWE" route="right" depart="1456" />
    <vehicle id="down_321" type="typeNS" route="down" depart="1461" color="1,0,0"/>
    <vehicle id="right_322" type="typeWE" route="right" depart="1463" />
    <vehicle id="left_323" type="typeWE" route="left" depart="1471" />
    <vehicle id="left_324" type="typeWE" route="left" depart="1472" />
    <vehicle id="right_325" type="typeWE" route="right" depart="1475" />
    <vehicle id="left_326" type="typeWE" route="left" depart="1483" />
    <vehicle id="new2_327" type="typeWE" route="new2" depart="1484" />
    <vehicle id="left_328" type="typeWE" route="left" depart="1484" />
    <vehicle id="new2_329" type="typeWE" route="new2" depart="1490" />
    <vehicle id="new3_330" type="typeWE" route="new3" depart="1492" />
    <vehicle id="up_331" type="typeNS" route="up" depart="1501"/>
    <vehicle id="right_332" type="typeWE" route="right" depart="1505" />
    <vehicle id="up_333" type="typeNS" route="up" depart="1509"/>
    <vehicle id="up_334" type="typeNS" route="up" depart="1511"/>
    <vehicle id="up_335" type="typeNS" route="up" depart="1516"/>
    <vehicle id="right_336" type="typeWE" route="right" depart="1520" />
    <vehicle id="down_337" type="typeNS" route="down" depart="1524" color="1,0,0"/>
    <vehicle id="left_338" type="typeWE" route="left" depart="1536" />
    <vehicle id="new2_339" type="typeWE" route="new2" depart="1538" />
    <vehicle id="down_340" type="typeNS" route="down" depart="1538" color="1,0,0"/>
    <vehicle id="right_341" type="typeWE" route="right" depart="1540" />
    <vehicle id="down_342" type="typeNS" route="down" depart="1544" color="1,0,0"/>
    <vehicle id="new2_343" type="typeWE" route="new2" depart="1548" />
    <vehicle id="new_344" type="typeWE" route="new" depart="1554"/>
    <vehicle id="new2_345" type="typeWE" route="new2" depart="1559" />
    <vehicle id="left_346" type="typeWE" route="left" depart="1560" />
    <vehicle id="left_347" type="typeWE" route="left" depart="1563" />
    <vehicle id="right_348" type="typeWE" route="right" depart="1566" />
    <vehicle id="right_349" type="typeWE" route="right" depart="1574" />
    <vehicle id="new_350" type="typeWE" route="new" depart="1575"/>
    <vehicle id="left_351" type="typeWE" route="left" depart="1582" />
    <vehicle id="left_352" type="typeWE" route="left" depart="1592" />
    <vehicle id="right_353" type="typeWE" route="right" depart="1594" />
    <vehicle id="left_354" type="typeWE" route="left" depart="1595" />
    <vehicle id="right_355" type="typeWE" route="right" depart="1598" />
    <vehicle id="new2_356" type="typeWE" route="new2" depart="1611" />
    <vehicle id="new3_357" type="typeWE" route="new3" depart="1624" />
    <vehicle id="up_358" type="typeNS" route="up" depart="1634"/>
    <vehicle id="left_359" type="typeWE" route="left" depart="1652" />
    <vehicle id="right_360" type="typeWE" route="right" depart="1655" />
    <vehicle id="new_361" type="typeWE" route="new" depart="1655"/>
    <vehicle id="down_362" type="typeNS" route="down" depart="1656" color="1,0,0"/>
    <vehicle id="down_363" type="typeNS" route="down" depart="1661" color="1,0,0"/>
    <vehicle id="up_364" type="typeNS" route="up" depart="1661"/>
    <vehicle id="left_365" type="typeWE" route="left" depart="1664" />
    <vehicle id="new3_366" type="typeWE" route="new3" depart="1671" />
    <vehicle id="right_367" type="typeWE" route="right" depart="1679" />
    <vehicle id="new_368" type="typeWE" route="new" depart="1679"/>
    <vehicle id="right_369" type="typeWE" route="right" depart="1687" />
    <vehicle id="up_370" type="typeNS" route="up" depart="1694"/>
    <vehicle id="down_371" type="typeNS" route="down" depart="1699" color="1,0,0"/>
    <vehicle id="right_372" type="typeWE" route="right" depart="1704" />
    <vehicle id="down_373" type="typeNS" route="down" depart="1716" color="1,0,0"/>
    <vehicle id="left_374" type="typeWE" route="left" depart="1727" />
    <vehicle id="right_375" type="typeWE" route="right" depart="1729" />
    <vehicle id="left_376" type="typeWE" route="left" depart="1740" />
    <vehicle id="new3_377" type="typeWE" route="new3" depart="1747" />
    <vehicle id="down_378" type="typeNS" route="down" depart="1747" color="1,0,0"/>
    <vehicle id="left_379" type="typeWE" route="left" depart="1750" />
    <vehicle id="right_380" type="typeWE" route="right" depart="1758" />
    <vehicle id="left_381" type="typeWE" route="left" depart="1759" />
    <vehicle id="new_382" type="typeWE" route="new" depart="1760"/>
    <vehicle id="new_383" type="typeWE" route="new" depart="1763"/>
    <vehicle id="left_384" type="typeWE" route="left" depart="1764" />
    <vehicle id="new_385" type="typeWE" route="new" depart="1765"/>
    <vehicle id="right_386" type="typeWE" route="right" depart="1785" />
    <vehicle id="new2_387" type="typeWE" route="new2" depart="1795" />
    <vehicle id="new_388" type="typeWE" route="new" depart="1800"/>
    <vehicle id="new_389" type="typeWE" route="new" depart="1804"/>
    <vehicle id="right_390" type="typeWE" route="right" depart="1807" />
    <vehicle id="left_391" type="typeWE" route="left" depart="1808" />
    <vehicle id="right_392" type="typeWE" route="right" depart="1809" />
    <vehicle id="new3_393" type="typeWE" route="new3" depart="1813" />
    <vehicle id="left_394" type="typeWE" route="left" depart="1813" />
    <vehicle id="right_395" type="typeWE" route="right" depart="1816" />
    <vehicle id="left_396" type="typeWE" route="left" depart="1818" />
    <vehicle id="left_397" type="typeWE" route="left" depart="1823" />
    <vehicle id="right_398" type="typeWE" route="right" depart="1829" />
    <vehicle id="left_399" type="typeWE" route="left" depart="1830" />
    <vehicle id="down_400" type="typeNS" route="down" depart="1833" color="1,0,0"/>
    <vehicle id="new2_401" type="typeWE" route="new2" depart="1845" />
    <vehicle id="down_402" type="typeNS" route="down" depart="1845" color="1,0,0"/>
    <vehicle id="right_403" type="typeWE" route="right" depart="1850" />
    <vehicle id="down_404" type="typeNS" route="down" depart="1856" color="1,0,0"/>
    <vehicle id="left_405" type="typeWE" route="left" depart="1857" />
    <vehicle id="right_406" type="typeWE" route="right" depart="1858" />
    <vehicle id="right_407" type="typeWE" route="right" depart="1861" />
    <vehicle id="right_408" type="typeWE" route="right" depart="1867" />
    <vehicle id="left_409" type="typeWE" route="left" depart="1867" />
    <vehicle id="new_410" type="typeWE" route="new" depart="1867"/>
    <vehicle id="left_411" type="typeWE" route="left" depart="1872" />
    <vehicle id="left_412" type="typeWE" route="left" depart="1873" />