<?xml version="1.0" encoding="UTF-8"?>

<!-- generated on 06/13/20 13:58:39 by Eclipse SUMO netedit Version 1.4.0
<configuration xmlns:xsi="http://www.w3.org/2001/XMLSchema-instance" xsi:noNamespaceSchemaLocation="http://sumo.dlr.de/xsd/netconvertConfiguration.xsd">

    <input>
        <sumo-net-file value="D:\Program%20Files%20(x86)\Eclipse\Sumo\tools\2020-06-13-13-55-33\osm.net.xml"/>
    </input>

    <output>
        <output-file value="D:\Program%20Files%20(x86)\Eclipse\Sumo\tools\2020-06-13-13-55-33\osm.net.xml"/>
        <output.street-names value="true"/>
    </output>

    <processing>
        <geometry.min-radius.fix.railways value="false"/>
        <geometry.max-grade.fix value="false"/>
        <offset.disable-normalization value="true"/>
        <lefthand value="false"/>
    </processing>

    <junctions>
        <no-turnarounds value="true"/>
        <junctions.corner-detail value="5"/>
        <junctions.limit-turn-speed value="5.5"/>
        <rectangular-lane-cut value="false"/>
    </junctions>

    <pedestrian>
        <walkingareas value="false"/>
    </pedestrian>

    <visualisation>
        <registry-viewport value="true"/>
    </visualisation>

    <report>
        <aggregate-warnings value="5"/>
    </report>

</configuration>
-->

<net version="1.3" junctionCornerDetail="5" limitTurnSpeed="5.50" xmlns:xsi="http://www.w3.org/2001/XMLSchema-instance" xsi:noNamespaceSchemaLocation="http://sumo.dlr.de/xsd/net_file.xsd">

    <location netOffset="-552645.43,-6387004.52" convBoundary="24.53,268.16,550.14,959.65" origBoundary="39.881472,57.622311,39.890798,57.630888" projParameter="+proj=utm +zone=37 +ellps=WGS84 +datum=WGS84 +units=m +no_defs"/>

    <type id="highway.bridleway" priority="1" numLanes="1" speed="2.78" allow="pedestrian" oneway="1" width="2.00"/>
    <type id="highway.bus_guideway" priority="1" numLanes="1" speed="27.78" allow="bus" oneway="1"/>
    <type id="highway.cycleway" priority="1" numLanes="1" speed="8.33" allow="bicycle" oneway="0" width="1.00"/>
    <type id="highway.footway" priority="1" numLanes="1" speed="2.78" allow="pedestrian" oneway="1" width="2.00"/>
    <type id="highway.ford" priority="1" numLanes="1" speed="2.78" allow="army" oneway="0"/>
    <type id="highway.living_street" priority="2" numLanes="1" speed="2.78" disallow="tram rail_urban rail rail_electric rail_fast ship" oneway="0"/>
    <type id="highway.motorway" priority="14" numLanes="2" speed="39.44" allow="private emergency authority army vip passenger hov taxi bus coach delivery truck trailer motorcycle evehicle custom1 custom2" oneway="1"/>
    <type id="highway.motorway_link" priority="9" numLanes="1" speed="22.22" allow="private emergency authority army vip passenger hov taxi bus coach delivery truck trailer motorcycle evehicle custom1 custom2" oneway="1"/>
    <type id="highway.path" priority="1" numLanes="1" speed="2.78" allow="pedestrian bicycle" oneway="1" width="2.00"/>
    <type id="highway.pedestrian" priority="1" numLanes="1" speed="2.78" allow="pedestrian" oneway="1" width="2.00"/>
    <type id="highway.primary" priority="12" numLanes="2" speed="27.78" disallow="tram rail_urban rail rail_electric rail_fast ship" oneway="0"/>
    <type id="highway.primary_link" priority="7" numLanes="1" speed="22.22" disallow="tram rail_urban rail rail_electric rail_fast ship" oneway="0"/>
    <type id="highway.raceway" priority="15" numLanes="2" speed="83.33" allow="vip" oneway="0"/>
    <type id="highway.residential" priority="3" numLanes="1" speed="13.89" disallow="tram rail_urban rail rail_electric rail_fast ship" oneway="0"/>
    <type id="highway.secondary" priority="11" numLanes="1" speed="27.78" disallow="tram rail_urban rail rail_electric rail_fast ship" oneway="0"/>
    <type id="highway.secondary_link" priority="6" numLanes="1" speed="22.22" disallow="tram rail_urban rail rail_electric rail_fast ship" oneway="0"/>
    <type id="highway.service" priority="1" numLanes="1" speed="5.56" allow="pedestrian delivery bicycle" oneway="0"/>
    <type id="highway.stairs" priority="1" numLanes="1" speed="1.39" allow="pedestrian" oneway="1" width="2.00"/>
    <type id="highway.step" priority="1" numLanes="1" speed="1.39" allow="pedestrian" oneway="1" width="2.00"/>
    <type id="highway.steps" priority="1" numLanes="1" speed="1.39" allow="pedestrian" oneway="1" width="2.00"/>
    <type id="highway.tertiary" priority="10" numLanes="1" speed="22.22" disallow="tram rail_urban rail rail_electric rail_fast ship" oneway="0"/>
    <type id="highway.tertiary_link" priority="5" numLanes="1" speed="22.22" disallow="tram rail_urban rail rail_electric rail_fast ship" oneway="0"/>
    <type id="highway.track" priority="1" numLanes="1" speed="5.56" disallow="tram rail_urban rail rail_electric rail_fast ship" oneway="0"/>
    <type id="highway.trunk" priority="13" numLanes="2" speed="27.78" disallow="pedestrian bicycle tram rail_urban rail rail_electric rail_fast ship" oneway="0"/>
    <type id="highway.trunk_link" priority="8" numLanes="1" speed="22.22" disallow="pedestrian bicycle tram rail_urban rail rail_electric rail_fast ship" oneway="0"/>
    <type id="highway.unclassified" priority="4" numLanes="1" speed="13.89" disallow="tram rail_urban rail rail_electric rail_fast ship" oneway="0"/>
    <type id="highway.unsurfaced" priority="1" numLanes="1" speed="8.33" disallow="tram rail_urban rail rail_electric rail_fast ship" oneway="0"/>
    <type id="railway.highspeed" priority="21" numLanes="1" speed="69.44" allow="rail_fast" oneway="1"/>
    <type id="railway.light_rail" priority="19" numLanes="1" speed="27.78" allow="rail_urban" oneway="1"/>
    <type id="railway.preserved" priority="16" numLanes="1" speed="27.78" allow="rail" oneway="1"/>
    <type id="railway.rail" priority="20" numLanes="1" speed="44.44" allow="rail" oneway="1"/>
    <type id="railway.subway" priority="18" numLanes="1" speed="27.78" allow="rail_urban" oneway="1"/>
    <type id="railway.tram" priority="17" numLanes="1" speed="13.89" allow="tram" oneway="1"/>

    <edge id=":1380610041_0" function="internal">
        <lane id=":1380610041_0_0" index="0" disallow="tram rail_urban rail rail_electric rail_fast ship" speed="11.25" length="9.15" shape="151.59,393.17 151.71,395.62 152.09,397.28 152.93,398.80 154.39,400.77"/>
        <lane id=":1380610041_0_1" index="1" disallow="tram rail_urban rail rail_electric rail_fast ship" speed="12.25" length="9.15" shape="151.59,393.17 151.25,396.14 150.66,398.31 150.60,400.29 151.85,402.71"/>
    </edge>
    <edge id=":1380610047_0" function="internal">
        <lane id=":1380610047_0_0" index="0" disallow="tram rail_urban rail rail_electric rail_fast ship" speed="27.78" length="31.70" shape="139.40,406.31 135.59,374.85"/>
    </edge>
    <edge id=":1380610047_1" function="internal">
        <lane id=":1380610047_1_0" index="0" disallow="tram rail_urban rail rail_electric rail_fast ship" speed="27.78" length="32.67" shape="142.60,406.18 138.69,373.74"/>
    </edge>
    <edge id=":1380610047_2" function="internal">
        <lane id=":1380610047_2_0" index="0" disallow="tram rail_urban rail rail_electric rail_fast ship" speed="27.78" length="33.08" shape="142.60,406.18 142.05,396.15 141.66,389.05 141.82,382.26 142.89,373.16"/>
        <lane id=":1380610047_2_1" index="1" disallow="tram rail_urban rail rail_electric rail_fast ship" speed="27.78" length="33.08" shape="145.80,406.04 145.25,396.02 144.89,388.93 145.06,382.15 146.14,373.06"/>
        <lane id=":1380610047_2_2" index="2" disallow="tram rail_urban rail rail_electric rail_fast ship" speed="27.78" length="33.08" shape="149.00,405.91 148.46,395.90 148.11,388.82 148.31,382.05 149.39,372.95"/>
    </edge>
    <edge id=":1380610050_0" function="internal">
        <lane id=":1380610050_0_0" index="0" disallow="tram rail_urban rail rail_electric rail_fast ship" speed="22.22" length="41.48" shape="167.45,409.40 207.73,419.29"/>
    </edge>
    <edge id=":1380610050_1" function="internal">
        <lane id=":1380610050_1_0" index="0" disallow="tram rail_urban rail rail_electric rail_fast ship" speed="25.00" length="41.97" shape="167.45,409.40 176.52,412.19 187.61,416.20 198.19,421.07 205.70,426.42"/>
        <lane id=":1380610050_1_1" index="1" disallow="tram rail_urban rail rail_electric rail_fast ship" speed="22.60" length="41.97" shape="166.57,412.48 175.73,415.13 186.91,418.93 197.31,423.78 204.13,429.60"/>
    </edge>
    <edge id=":1380610050_3" function="internal">
        <lane id=":1380610050_3_0" index="0" disallow="tram rail_urban rail rail_electric rail_fast ship" speed="25.00" length="41.73" shape="166.10,416.67 175.10,415.80 186.46,417.39 197.89,420.05 207.07,422.42"/>
    </edge>
    <edge id=":1380610050_4" function="internal">
        <lane id=":1380610050_4_0" index="0" disallow="tram rail_urban rail rail_electric rail_fast ship" speed="16.39" length="43.13" shape="166.10,416.67 177.09,414.19 187.36,414.98 196.89,419.06 205.70,426.42"/>
        <lane id=":1380610050_4_1" index="1" disallow="tram rail_urban rail rail_electric rail_fast ship" speed="14.93" length="43.13" shape="165.97,420.12 178.05,417.19 188.44,417.80 197.13,421.94 204.13,429.60"/>
    </edge>
    <edge id=":1380610054_0" function="internal">
        <lane id=":1380610054_0_0" index="0" disallow="tram rail_urban rail rail_electric rail_fast ship" speed="27.78" length="14.35" shape="225.48,418.30 220.66,431.42"/>
        <lane id=":1380610054_0_1" index="1" disallow="tram rail_urban rail rail_electric rail_fast ship" speed="27.78" length="14.35" shape="222.51,417.11 217.57,430.58"/>
        <lane id=":1380610054_0_2" index="2" disallow="tram rail_urban rail rail_electric rail_fast ship" speed="27.78" length="14.35" shape="219.54,415.92 214.47,429.73"/>
    </edge>
    <edge id=":1380610054_3" function="internal">
        <lane id=":1380610054_3_0" index="0" disallow="tram rail_urban rail rail_electric rail_fast ship" speed="22.22" length="17.93" shape="211.60,420.22 228.81,425.33"/>
        <lane id=":1380610054_3_1" index="1" disallow="tram rail_urban rail rail_electric rail_fast ship" speed="22.22" length="17.93" shape="210.68,423.28 227.85,428.39"/>
    </edge>
    <edge id=":1380610355_0" function="internal">
        <lane id=":1380610355_0_0" index="0" disallow="tram rail_urban rail rail_electric rail_fast ship" speed="22.22" length="0.31" shape="264.01,458.12 263.83,457.87"/>
    </edge>
    <edge id=":1380610355_1" function="internal">
        <lane id=":1380610355_1_0" index="0" disallow="tram rail_urban rail rail_electric rail_fast ship" speed="3.65" length="2.34" shape="264.01,458.12 263.98,456.68 264.42,455.90"/>
    </edge>
    <edge id=":1380610355_4" function="internal">
        <lane id=":1380610355_4_0" index="0" disallow="tram rail_urban rail rail_electric rail_fast ship" speed="3.65" length="2.34" shape="264.42,455.90 265.30,455.77 266.64,456.30"/>
    </edge>
    <edge id=":1380610355_2" function="internal">
        <lane id=":1380610355_2_0" index="0" disallow="tram rail_urban rail rail_electric rail_fast ship" speed="22.22" length="0.29" shape="266.48,456.07 266.64,456.30"/>
    </edge>
    <edge id=":1380610355_3" function="internal">
        <lane id=":1380610355_3_0" index="0" disallow="tram rail_urban rail rail_electric rail_fast ship" speed="3.65" length="2.34" shape="266.48,456.07 266.49,457.51 266.06,458.29"/>
    </edge>
    <edge id=":1380610355_5" function="internal">
        <lane id=":1380610355_5_0" index="0" disallow="tram rail_urban rail rail_electric rail_fast ship" speed="3.65" length="2.34" shape="266.06,458.29 265.17,458.41 263.83,457.87"/>
    </edge>
    <edge id=":1380610360_0" function="internal">
        <lane id=":1380610360_0_0" index="0" disallow="tram rail_urban rail rail_electric rail_fast ship" speed="26.85" length="54.16" shape="157.09,474.20 152.76,465.73 149.90,452.57 147.99,437.02 146.52,421.37"/>
        <lane id=":1380610360_0_1" index="1" disallow="tram rail_urban rail rail_electric rail_fast ship" speed="26.75" length="54.16" shape="157.09,474.20 153.26,465.71 151.50,452.51 150.70,436.92 149.73,421.25"/>
    </edge>
    <edge id=":1380610360_2" function="internal">
        <lane id=":1380610360_2_0" index="0" disallow="tram rail_urban rail rail_electric rail_fast ship" speed="15.77" length="59.50" shape="157.09,474.20 147.16,460.88 143.72,447.89 146.80,435.21 156.37,422.85"/>
        <lane id=":1380610360_2_1" index="1" disallow="tram rail_urban rail rail_electric rail_fast ship" speed="14.74" length="59.50" shape="161.28,473.29 149.17,462.63 144.92,450.83 148.53,437.89 160.00,423.81"/>
    </edge>
    <edge id=":1380610360_4" function="internal">
        <lane id=":1380610360_4_0" index="0" disallow="tram rail_urban rail rail_electric rail_fast ship" speed="27.78" length="54.13" shape="140.97,475.58 141.67,461.53 141.76,448.58 141.24,435.64 140.12,421.61"/>
        <lane id=":1380610360_4_1" index="1" disallow="tram rail_urban rail rail_electric rail_fast ship" speed="27.78" length="54.13" shape="140.97,475.58 142.17,461.51 143.36,448.52 143.94,435.54 143.32,421.49"/>
    </edge>
    <edge id=":1380610360_6" function="internal">
        <lane id=":1380610360_6_0" index="0" disallow="tram rail_urban rail rail_electric rail_fast ship" speed="25.27" length="20.65" shape="140.97,475.58 142.92,459.89 143.99,455.17"/>
    </edge>
    <edge id=":1380610360_7" function="internal">
        <lane id=":1380610360_7_0" index="0" disallow="tram rail_urban rail rail_electric rail_fast ship" speed="25.11" length="13.80" shape="144.17,475.62 145.95,461.94"/>
    </edge>
    <edge id=":1380610360_8" function="internal">
        <lane id=":1380610360_8_0" index="0" disallow="tram rail_urban rail rail_electric rail_fast ship" speed="25.27" length="34.92" shape="143.99,455.17 146.45,444.32 151.10,431.19 156.37,422.85"/>
    </edge>
    <edge id=":1380610360_9" function="internal">
        <lane id=":1380610360_9_0" index="0" disallow="tram rail_urban rail rail_electric rail_fast ship" speed="25.11" length="41.03" shape="145.95,461.94 146.19,460.08 149.87,444.82 154.66,432.01 160.00,423.81"/>
    </edge>
    <edge id=":1380610569_0" function="internal">
        <lane id=":1380610569_0_0" index="0" disallow="tram rail_urban rail rail_electric rail_fast ship" speed="22.22" length="0.29" shape="280.41,481.88 280.24,481.64"/>
    </edge>
    <edge id=":1380610569_1" function="internal">
        <lane id=":1380610569_1_0" index="0" disallow="tram rail_urban rail rail_electric rail_fast ship" speed="3.65" length="2.34" shape="280.41,481.88 280.39,480.44 280.82,479.65"/>
    </edge>
    <edge id=":1380610569_4" function="internal">
        <lane id=":1380610569_4_0" index="0" disallow="tram rail_urban rail rail_electric rail_fast ship" speed="3.65" length="2.34" shape="280.82,479.65 281.71,479.53 283.04,480.07"/>
    </edge>
    <edge id=":1380610569_2" function="internal">
        <lane id=":1380610569_2_0" index="0" disallow="tram rail_urban rail rail_electric rail_fast ship" speed="22.22" length="0.30" shape="282.87,479.82 283.04,480.07"/>
    </edge>
    <edge id=":1380610569_3" function="internal">
        <lane id=":1380610569_3_0" index="0" disallow="tram rail_urban rail rail_electric rail_fast ship" speed="3.65" length="2.34" shape="282.87,479.82 282.89,481.26 282.46,482.04"/>
    </edge>
    <edge id=":1380610569_5" function="internal">
        <lane id=":1380610569_5_0" index="0" disallow="tram rail_urban rail rail_electric rail_fast ship" speed="3.65" length="2.34" shape="282.46,482.04 281.58,482.17 280.24,481.64"/>
    </edge>
    <edge id=":1380610655_0" function="internal">
        <lane id=":1380610655_0_0" index="0" disallow="tram rail_urban rail rail_electric rail_fast ship" speed="22.22" length="0.30" shape="287.65,492.44 287.48,492.19"/>
    </edge>
    <edge id=":1380610655_1" function="internal">
        <lane id=":1380610655_1_0" index="0" disallow="tram rail_urban rail rail_electric rail_fast ship" speed="3.65" length="2.34" shape="287.65,492.44 287.63,491.00 288.06,490.22"/>
    </edge>
    <edge id=":1380610655_4" function="internal">
        <lane id=":1380610655_4_0" index="0" disallow="tram rail_urban rail rail_electric rail_fast ship" speed="3.65" length="2.34" shape="288.06,490.22 288.94,490.09 290.28,490.63"/>
    </edge>
    <edge id=":1380610655_2" function="internal">
        <lane id=":1380610655_2_0" index="0" disallow="tram rail_urban rail rail_electric rail_fast ship" speed="22.22" length="0.30" shape="290.11,490.38 290.28,490.63"/>
    </edge>
    <edge id=":1380610655_3" function="internal">
        <lane id=":1380610655_3_0" index="0" disallow="tram rail_urban rail rail_electric rail_fast ship" speed="3.65" length="2.34" shape="290.11,490.38 290.13,491.82 289.70,492.61"/>
    </edge>
    <edge id=":1380610655_5" function="internal">
        <lane id=":1380610655_5_0" index="0" disallow="tram rail_urban rail rail_electric rail_fast ship" speed="3.65" length="2.34" shape="289.70,492.61 288.81,492.73 287.48,492.19"/>
    </edge>
    <edge id=":1380610913_0" function="internal">
        <lane id=":1380610913_0_0" index="0" disallow="tram rail_urban rail rail_electric rail_fast ship" speed="22.22" length="0.10" shape="302.26,513.67 302.26,513.67"/>
    </edge>
    <edge id=":1380610913_1" function="internal">
        <lane id=":1380610913_1_0" index="0" disallow="tram rail_urban rail rail_electric rail_fast ship" speed="3.65" length="2.34" shape="302.26,513.67 302.24,512.23 302.67,511.44"/>
    </edge>
    <edge id=":1380610913_4" function="internal">
        <lane id=":1380610913_4_0" index="0" disallow="tram rail_urban rail rail_electric rail_fast ship" speed="3.65" length="2.34" shape="302.67,511.44 303.56,511.32 304.90,511.85"/>
    </edge>
    <edge id=":1380610913_2" function="internal">
        <lane id=":1380610913_2_0" index="0" disallow="tram rail_urban rail rail_electric rail_fast ship" speed="22.22" length="0.10" shape="304.90,511.85 304.90,511.85"/>
    </edge>
    <edge id=":1380610913_3" function="internal">
        <lane id=":1380610913_3_0" index="0" disallow="tram rail_urban rail rail_electric rail_fast ship" speed="3.65" length="2.34" shape="304.90,511.85 304.92,513.29 304.49,514.08"/>
    </edge>
    <edge id=":1380610913_5" function="internal">
        <lane id=":1380610913_5_0" index="0" disallow="tram rail_urban rail rail_electric rail_fast ship" speed="3.65" length="2.34" shape="304.49,514.08 303.60,514.20 302.26,513.67"/>
    </edge>
    <edge id=":1380611042_0" function="internal">
        <lane id=":1380611042_0_0" index="0" disallow="tram rail_urban rail rail_electric rail_fast ship" speed="27.78" length="0.10" shape="229.39,526.21 229.39,526.21"/>
        <lane id=":1380611042_0_1" index="1" disallow="tram rail_urban rail rail_electric rail_fast ship" speed="27.78" length="0.10" shape="226.35,527.20 226.35,527.20"/>
        <lane id=":1380611042_0_2" index="2" disallow="tram rail_urban rail rail_electric rail_fast ship" speed="27.78" length="0.10" shape="223.31,528.19 223.31,528.19"/>
    </edge>
    <edge id=":1494249657_0" function="internal">
        <lane id=":1494249657_0_0" index="0" disallow="tram rail_urban rail rail_electric rail_fast ship" speed="27.78" length="10.28" shape="251.52,350.73 250.94,353.69 251.28,355.86 251.63,358.04 251.04,361.00"/>
        <lane id=":1494249657_0_1" index="1" disallow="tram rail_urban rail rail_electric rail_fast ship" speed="27.78" length="10.28" shape="248.54,349.59 247.95,352.54 248.29,354.72 248.64,356.90 248.05,359.86"/>
        <lane id=":1494249657_0_2" index="2" disallow="tram rail_urban rail rail_electric rail_fast ship" speed="27.78" length="10.28" shape="245.55,348.44 244.96,351.40 245.30,353.58 245.65,355.76 245.06,358.72"/>
        <lane id=":1494249657_0_3" index="3" disallow="tram rail_urban rail rail_electric rail_fast ship" speed="27.78" length="10.28" shape="245.55,348.44 242.07,357.58"/>
    </edge>
    <edge id=":1539267738_0" function="internal">
        <lane id=":1539267738_0_0" index="0" disallow="tram rail_urban rail rail_electric rail_fast ship" speed="3.65" length="4.67" shape="297.80,449.17 298.67,450.32 298.78,451.21 298.14,451.83 296.74,452.19"/>
    </edge>
    <edge id=":1547699149_0" function="internal">
        <lane id=":1547699149_0_0" index="0" disallow="tram rail_urban rail rail_electric rail_fast ship" speed="13.89" length="0.31" shape="263.80,440.68 263.50,440.57"/>
    </edge>
    <edge id=":1547699149_1" function="internal">
        <lane id=":1547699149_1_0" index="0" disallow="tram rail_urban rail rail_electric rail_fast ship" speed="3.65" length="2.34" shape="263.80,440.68 262.93,439.53 262.82,438.64"/>
    </edge>
    <edge id=":1547699149_4" function="internal">
        <lane id=":1547699149_4_0" index="0" disallow="tram rail_urban rail rail_electric rail_fast ship" speed="3.65" length="2.34" shape="262.82,438.64 263.46,438.02 264.85,437.66"/>
    </edge>
    <edge id=":1547699149_2" function="internal">
        <lane id=":1547699149_2_0" index="0" disallow="tram rail_urban rail rail_electric rail_fast ship" speed="13.89" length="0.27" shape="264.60,437.57 264.85,437.66"/>
    </edge>
    <edge id=":1547699149_3" function="internal">
        <lane id=":1547699149_3_0" index="0" disallow="tram rail_urban rail rail_electric rail_fast ship" speed="3.65" length="2.34" shape="264.60,437.57 265.46,438.73 265.56,439.62"/>
    </edge>
    <edge id=":1547699149_5" function="internal">
        <lane id=":1547699149_5_0" index="0" disallow="tram rail_urban rail rail_electric rail_fast ship" speed="3.65" length="2.34" shape="265.56,439.62 264.91,440.23 263.50,440.57"/>
    </edge>
    <edge id=":1547699154_0" function="internal">
        <lane id=":1547699154_0_0" index="0" disallow="tram rail_urban rail rail_electric rail_fast ship" speed="22.22" length="0.30" shape="258.27,449.70 258.10,449.46"/>
    </edge>
    <edge id=":1547699154_1" function="internal">
        <lane id=":1547699154_1_0" index="0" disallow="tram rail_urban rail rail_electric rail_fast ship" speed="3.65" length="2.34" shape="258.27,449.70 258.26,448.26 258.69,447.48"/>
    </edge>
    <edge id=":1547699154_4" function="internal">
        <lane id=":1547699154_4_0" index="0" disallow="tram rail_urban rail rail_electric rail_fast ship" speed="3.65" length="2.34" shape="258.69,447.48 259.58,447.36 260.92,447.90"/>
    </edge>
    <edge id=":1547699154_2" function="internal">
        <lane id=":1547699154_2_0" index="0" disallow="tram rail_urban rail rail_electric rail_fast ship" speed="22.22" length="0.30" shape="260.75,447.65 260.92,447.90"/>
    </edge>
    <edge id=":1547699154_3" function="internal">
        <lane id=":1547699154_3_0" index="0" disallow="tram rail_urban rail rail_electric rail_fast ship" speed="3.65" length="2.34" shape="260.75,447.65 260.76,449.10 260.33,449.88"/>
    </edge>
    <edge id=":1547699154_5" function="internal">
        <lane id=":1547699154_5_0" index="0" disallow="tram rail_urban rail rail_electric rail_fast ship" speed="3.65" length="2.34" shape="260.33,449.88 259.44,450.00 258.10,449.46"/>
    </edge>
    <edge id=":2303777499_0" function="internal">
        <lane id=":2303777499_0_0" index="0" disallow="tram rail_urban rail rail_electric rail_fast ship" speed="11.17" length="8.72" shape="244.17,433.52 241.77,432.94 240.04,433.17 238.29,433.91 235.86,434.86"/>
    </edge>
    <edge id=":2303777499_1" function="internal">
        <lane id=":2303777499_1_0" index="0" disallow="tram rail_urban rail rail_electric rail_fast ship" speed="3.65" length="2.34" shape="244.17,433.52 243.32,432.36 243.22,431.47"/>
    </edge>
    <edge id=":2303777499_6" function="internal">
        <lane id=":2303777499_6_0" index="0" disallow="tram rail_urban rail rail_electric rail_fast ship" speed="3.65" length="2.34" shape="243.22,431.47 243.87,430.85 245.27,430.51"/>
    </edge>
    <edge id=":2303777499_2" function="internal">
        <lane id=":2303777499_2_0" index="0" disallow="tram rail_urban rail rail_electric rail_fast ship" speed="11.22" length="9.26" shape="238.74,424.40 240.14,426.76 241.29,428.32 242.80,429.45 245.27,430.51"/>
    </edge>
    <edge id=":2303777499_3" function="internal">
        <lane id=":2303777499_3_0" index="0" disallow="tram rail_urban rail rail_electric rail_fast ship" speed="7.16" length="13.12" shape="238.74,424.40 240.36,428.05 240.42,431.02 238.92,433.29 235.86,434.86"/>
    </edge>
    <edge id=":2303777499_4" function="internal">
        <lane id=":2303777499_4_0" index="0" disallow="tram rail_urban rail rail_electric rail_fast ship" speed="22.22" length="9.28" shape="236.41,427.73 245.27,430.51"/>
    </edge>
    <edge id=":2303777499_5" function="internal">
        <lane id=":2303777499_5_0" index="0" disallow="tram rail_urban rail rail_electric rail_fast ship" speed="4.84" length="3.20" shape="235.45,430.78 237.97,431.82 238.28,432.17"/>
    </edge>
    <edge id=":2303777499_7" function="internal">
        <lane id=":2303777499_7_0" index="0" disallow="tram rail_urban rail rail_electric rail_fast ship" speed="4.84" length="4.64" shape="238.28,432.17 238.87,432.84 238.17,433.86 235.86,434.86"/>
    </edge>
    <edge id=":255119285_0" function="internal">
        <lane id=":255119285_0_0" index="0" disallow="tram rail_urban rail rail_electric rail_fast ship" speed="14.89" length="39.67" shape="223.76,441.21 216.97,447.44 213.11,455.45 212.16,465.24 214.14,476.80"/>
    </edge>
    <edge id=":255119285_1" function="internal">
        <lane id=":255119285_1_0" index="0" disallow="tram rail_urban rail rail_electric rail_fast ship" speed="25.00" length="40.20" shape="223.76,441.21 219.63,446.74 214.02,456.67 207.67,467.17 201.28,474.38"/>
    </edge>
    <edge id=":255119285_2" function="internal">
        <lane id=":255119285_2_0" index="0" disallow="tram rail_urban rail rail_electric rail_fast ship" speed="27.78" length="46.26" shape="220.59,431.61 216.93,442.53 213.54,453.80 211.23,465.21 210.85,476.53"/>
    </edge>
    <edge id=":255119285_3" function="internal">
        <lane id=":255119285_3_0" index="0" disallow="tram rail_urban rail rail_electric rail_fast ship" speed="26.18" length="47.18" shape="220.59,431.61 216.75,443.50 212.25,456.19 207.10,467.29 201.28,474.38"/>
        <lane id=":255119285_3_1" index="1" disallow="tram rail_urban rail rail_electric rail_fast ship" speed="26.08" length="47.18" shape="217.50,430.77 213.59,442.56 208.95,455.04 203.66,465.93 197.77,472.92"/>
    </edge>
    <edge id=":255119285_5" function="internal">
        <lane id=":255119285_5_0" index="0" disallow="tram rail_urban rail rail_electric rail_fast ship" speed="27.78" length="47.16" shape="207.86,429.46 209.97,438.21 209.37,450.40 207.95,463.83 207.62,476.27"/>
    </edge>
    <edge id=":255119285_6" function="internal">
        <lane id=":255119285_6_0" index="0" disallow="tram rail_urban rail rail_electric rail_fast ship" speed="15.01" length="50.40" shape="207.86,429.46 214.23,442.68 215.26,454.57 210.95,465.13 201.28,474.38"/>
        <lane id=":255119285_6_1" index="1" disallow="tram rail_urban rail rail_electric rail_fast ship" speed="14.72" length="50.40" shape="204.24,429.77 210.34,442.44 211.29,453.85 207.11,464.01 197.77,472.92"/>
    </edge>
    <edge id=":255119287_0" function="internal">
        <lane id=":255119287_0_0" index="0" disallow="tram rail_urban rail rail_electric rail_fast ship" speed="25.00" length="28.31" shape="199.53,475.59 192.67,479.48 185.22,482.59 178.43,484.96 173.55,486.63"/>
    </edge>
    <edge id=":255119287_1" function="internal">
        <lane id=":255119287_1_0" index="0" disallow="tram rail_urban rail rail_electric rail_fast ship" speed="15.61" length="28.72" shape="199.53,475.59 192.26,479.84 185.26,482.26 178.53,482.86 172.07,481.65"/>
        <lane id=":255119287_1_1" index="1" disallow="tram rail_urban rail rail_electric rail_fast ship" speed="15.38" length="28.72" shape="197.69,472.98 190.96,476.80 184.25,478.89 177.55,479.25 170.88,477.87"/>
    </edge>
    <edge id=":255119427_0" function="internal">
        <lane id=":255119427_0_0" index="0" disallow="tram rail_urban rail rail_electric rail_fast ship" speed="3.65" length="4.67" shape="24.78,521.42 23.47,520.82 22.95,520.09 23.22,519.23 24.28,518.26"/>
    </edge>
    <edge id=":255120075_0" function="internal">
        <lane id=":255120075_0_0" index="0" disallow="tram rail_urban rail rail_electric rail_fast ship" speed="3.65" length="4.67" shape="551.06,852.46 551.58,853.81 551.45,854.69 550.66,855.11 549.22,855.08"/>
    </edge>
    <edge id=":5155777529_0" function="internal">
        <lane id=":5155777529_0_0" index="0" disallow="tram rail_urban rail rail_electric rail_fast ship" speed="25.00" length="9.55" shape="236.60,398.96 235.57,401.59 234.76,403.36 233.84,405.07 232.42,407.53"/>
    </edge>
    <edge id=":5155777529_1" function="internal">
        <lane id=":5155777529_1_0" index="0" disallow="tram rail_urban rail rail_electric rail_fast ship" speed="27.78" length="8.59" shape="233.61,397.82 230.29,406.29"/>
        <lane id=":5155777529_1_1" index="1" disallow="tram rail_urban rail rail_electric rail_fast ship" speed="27.78" length="8.59" shape="230.62,396.68 227.49,404.67"/>
        <lane id=":5155777529_1_2" index="2" disallow="tram rail_urban rail rail_electric rail_fast ship" speed="27.78" length="8.59" shape="227.63,395.54 224.69,403.06"/>
    </edge>
    <edge id=":5709511677_0" function="internal">