<?xml version="1.0" encoding="UTF-8"?>

<!-- generated on 06/13/20 14:48:42 by Eclipse SUMO duarouter Version 1.4.0
<configuration xmlns:xsi="http://www.w3.org/2001/XMLSchema-instance" xsi:noNamespaceSchemaLocation="http://sumo.dlr.de/xsd/duarouterConfiguration.xsd">

    <input>
        <net-file value="osm.net.xml"/>
        <route-files value="osm.bus.trips.xml"/>
    </input>

    <output>
        <output-file value="osm.bus.trips.xml.tmp"/>
        <write-trips value="true"/>
    </output>

    <time>
        <begin value="0"/>
        <end value="800.0"/>
    </time>

    <report>
        <no-warnings value="true"/>
        <ignore-errors value="true"/>
        <no-step-log value="true"/>
    </report>

</configuration>
-->

<routes xmlns:xsi="http://www.w3.org/2001/XMLSchema-instance" xsi:noNamespaceSchemaLocation="http://sumo.dlr.de/xsd/routes_file.xsd">
    <vType id="bus_bus" vClass="bus"/>
    <trip id="bus0" type="bus_bus" depart="0.00" departLane="best" departSpeed="max" from="-665146714#5" to="99952620#1"/>
    <trip id="bus1" type="bus_bus" depart="60.27" departLane="best" departSpeed="max" from="-23559783" to="665146714#4"/>
    <trip id="bus2" type="bus_bus" depart="120.54" departLane="best" departSpeed="max" from="-665146714#5" to="82011072"/>
    <trip id="bus3" type="bus_bus" depart="180.82" departLane="best" departSpeed="max" from="-665146714#5" to="-77856541#0"/>
    <trip id="bus4" type="bus_bus" depart="241.09" departLane="best" departSpeed="max" from="-665146714#5" to="23559783"/>
    <trip id="bus5" type="bus_bus" depart="301.36" departLane="best" departSpeed="max" from="-665146714#5" to="-77856541#0"/>
    <trip id="bus6" type="bus_bus" depart="361.63" departLane="best" departSpeed="max" from="-665146714#5" to="23559783"/>
    <trip id="bus7" type="bus_bus" depart="421.91" departLane="best" from="585506249#1" to="127497306#3"/>
    <trip id="bus8" type="bus_bus" depart="482.18" departLane="best" departSpeed="max" from="-23559783" to="665146714#4"/>
    <trip id="bus9" type="bus_bus" depart="542.45" departLane="best" from="126181921" to="127497306#3"/>
    <trip id="bus10" type="bus_bus" depart="602.72" departLane="best" departSpeed="max" from="585506249#0" to="127497306#3"/>
    <trip id="bus11" type="bus_bus" depart="663.00" departLane="best" departSpeed="max" from="585506249#0" to="127497306#3"/>
    <trip id="bus12" type="bus_bus" depart="723.27" departLane="best" departSpeed="max" from="-665146714#5" to="99952620#1"/>
    <trip id="bus13" type="bus_bus" depart="783.54" departLane="best" departSpeed="max" from="77856541#0" to="665146714#4"/>
</routes>
