<?xml version="1.0" encoding="UTF-8"?>

<!-- generated on 06/13/20 14:48:43 by Eclipse SUMO duarouter Version 1.4.0
<configuration xmlns:xsi="http://www.w3.org/2001/XMLSchema-instance" xsi:noNamespaceSchemaLocation="http://sumo.dlr.de/xsd/duarouterConfiguration.xsd">

    <input>
        <net-file value="osm.net.xml"/>
        <route-files value="osm.passenger.trips.xml"/>
    </input>

    <output>
        <output-file value="osm.passenger.trips.xml.tmp"/>
        <write-trips value="true"/>
    </output>

    <time>
        <begin value="0"/>
        <end value="800.0"/>
    </time>

    <report>
        <no-warnings value="true"/>
        <ignore-errors value="true"/>
        <no-step-log value="true"/>
    </report>

</configuration>
-->

<routes xmlns:xsi="http://www.w3.org/2001/XMLSchema-instance" xsi:noNamespaceSchemaLocation="http://sumo.dlr.de/xsd/routes_file.xsd">
    <vType id="veh_passenger" vClass="passenger"/>
    <trip id="veh0" type="veh_passenger" depart="0.00" departLane="best" from="-99952877" to="127497306#3"/>
    <trip id="veh1" type="veh_passenger" depart="4.52" departLane="best" departSpeed="max" from="585506249#0" to="665146714#4"/>
    <trip id="veh2" type="veh_passenger" depart="9.04" departLane="best" departSpeed="max" from="-23559783" to="127497306#3"/>
    <trip id="veh3" type="veh_passenger" depart="13.56" departLane="best" from="665146708" to="665146714#4"/>
    <trip id="veh4" type="veh_passenger" depart="18.08" departLane="best" departSpeed="max" from="77856541#0" to="127497306#3"/>
    <trip id="veh5" type="veh_passenger" depart="22.60" departLane="best" from="665146708" to="665146714#4"/>
    <trip id="veh6" type="veh_passenger" depart="27.12" departLane="best" departSpeed="max" from="585506249#0" to="-77856541#0"/>
    <trip id="veh7" type="veh_passenger" depart="31.64" departLane="best" departSpeed="max" from="-665146715" to="127497306#3"/>
    <trip id="veh8" type="veh_passenger" depart="36.16" departLane="best" departSpeed="max" from="-23559783" to="127497306#3"/>
    <trip id="veh9" type="veh_passenger" depart="40.68" departLane="best" departSpeed="max" from="-23559783" to="127497306#3"/>
    <trip id="veh10" type="veh_passenger" depart="45.20" departLane="best" departSpeed="max" from="123936943#0" to="127497306#3"/>
    <trip id="veh11" type="veh_passenger" depart="49.72" departLane="best" departSpeed="max" from="-665146714#5" to="23559783"/>
    <trip id="veh12" type="veh_passenger" depart="54.25" departLane="best" from="45014977" to="665146714#4"/>
    <trip id="veh13" type="veh_passenger" depart="58.77" departLane="best" departSpeed="max" from="123936943#0" to="127497306#3"/>
    <trip id="veh14" type="veh_passenger" depart="63.29" departLane="best" from="665146713" to="127497306#3"/>
    <trip id="veh15" type="veh_passenger" depart="67.81" departLane="best" departSpeed="max" from="-665146715" to="127497306#3"/>
    <trip id="veh16" type="veh_passenger" depart="72.33" departLane="best" from="45014977" to="127497306#3"/>
    <trip id="veh17" type="veh_passenger" depart="76.85" departLane="best" departSpeed="max" from="123936943#0" to="127497306#3"/>
    <trip id="veh18" type="veh_passenger" depart="81.37" departLane="best" departSpeed="max" from="77856541#0" to="99952620#1"/>
    <trip id="veh19" type="veh_passenger" depart="85.89" departLane="best" departSpeed="max" from="-23559783" to="665146714#4"/>
    <trip id="veh20" type="veh_passenger" depart="90.41" departLane="best" from="665146713" to="127497306#3"/>
    <trip id="veh21" type="veh_passenger" depart="94.93" departLane="best" from="127497306#0" to="127497306#3"/>
    <trip id="veh22" type="veh_passenger" depart="99.45" departLane="best" from="-221348491#0" to="127497306#3"/>
    <trip id="veh23" type="veh_passenger" depart="103.97" departLane="best" departSpeed="max" from="123936943#0" to="127497306#3"/>
    <trip id="veh24" type="veh_passenger" depart="108.49" departLane="best" from="221348491#0" to="665146714#4"/>
    <trip id="veh25" type="veh_passenger" depart="113.01" departLane="best" departSpeed="max" from="-23559783" to="127497306#3"/>
    <trip id="veh26" type="veh_passenger" depart="117.53" departLane="best" departSpeed="max" from="-665146715" to="127497306#3"/>
    <trip id="veh27" type="veh_passenger" depart="122.05" departLane="best" from="665146708" to="127497306#3"/>
    <trip id="veh28" type="veh_passenger" depart="126.57" departLane="best" departSpeed="max" from="123936943#0" to="127497306#3"/>
    <trip id="veh29" type="veh_passenger" depart="131.09" departLane="best" from="665146712" to="127497306#3"/>
    <trip id="veh30" type="veh_passenger" depart="135.61" departLane="best" departSpeed="max" from="-665146714#5" to="23559783"/>
    <trip id="veh31" type="veh_passenger" depart="140.13" departLane="best" departSpeed="max" from="123936943#0" to="127497306#3"/>
    <trip id="veh32" type="veh_passenger" depart="144.65" departLane="best" departSpeed="max" from="77856541#0" to="99952620#1"/>
    <trip id="veh33" type="veh_passenger" depart="149.17" departLane="best" from="127497306#0" to="127497306#3"/>
    <trip id="veh34" type="veh_passenger" depart="153.69" departLane="best" from="45014977" to="665146714#4"/>
    <trip id="veh35" type="veh_passenger" depart="158.22" departLane="best" departSpeed="max" from="-665146714#5" to="99952620#1"/>
    <trip id="veh36" type="veh_passenger" depart="162.74" departLane="best" departSpeed="max" from="-23559783" to="127497306#3"/>
    <trip id="veh37" type="veh_passenger" depart="167.26" departLane="best" from="665146714#1" to="127497306#3"/>
    <trip id="veh38" type="veh_passenger" depart="171.78" departLane="best" departSpeed="max" from="585506249#0" to="127497306#3"/>
    <trip id="veh39" type="veh_passenger" depart="176.30" departLane="best" departSpeed="max" from="-23559783" to="127497306#3"/>
    <trip id="veh40" type="veh_passenger" depart="180.82" departLane="best" from="665146709" to="665146714#4"/>
    <trip id="veh41" type="veh_passenger" depart="185.34" departLane="best" from="665146708" to="127497306#3"/>
    <trip id="veh42" type="veh_passenger" depart="189.86" departLane="best" departSpeed="max" from="585506249#0" to="127497306#3"/>
    <trip id="veh43" type="veh_passenger" depart="194.38" departLane="best" departSpeed="max" from="585506249#0" to="127497306#3"/>
    <trip id="veh44" type="veh_passenger" depart="198.90" departLane="best" departSpeed="max" from="123936943#0" to="127497306#3"/>
    <trip id="veh45" type="veh_passenger" depart="203.42" departLane="best" departSpeed="max" from="585506249#0" to="127497306#3"/>
    <trip id="veh46" type="veh_passenger" depart="207.94" departLane="best" from="665146714#2" to="127497306#3"/>
    <trip id="veh47" type="veh_passenger" depart="212.46" departLane="best" departSpeed="max" from="-665146714#5" to="99952620#1"/>
    <trip id="veh48" type="veh_passenger" depart="216.98" departLane="best" from="665146708" to="127497306#3"/>
    <trip id="veh49" type="veh_passenger" depart="221.50" departLane="best" departSpeed="max" from="123936943#0" to="127497306#3"/>
    <trip id="veh50" type="veh_passenger" depart="226.02" departLane="best" from="600437351" to="127497306#3"/>
    <trip id="veh51" type="veh_passenger" depart="230.54" departLane="best" departSpeed="max" from="-23559783" to="127497306#3"/>
    <trip id="veh52" type="veh_passenger" depart="235.06" departLane="best" departSpeed="max" from="77856541#0" to="127497306#3"/>
    <trip id="veh53" type="veh_passenger" depart="239.58" departLane="best" departSpeed="max" from="77856541#0" to="127497306#3"/>
    <trip id="veh54" type="veh_passenger" depart="244.10" departLane="best" departSpeed="max" from="77856541#0" to="127497306#3"/>
    <trip id="veh55" type="veh_passenger" depart="248.62" departLane="best" departSpeed="max" from="585506249#0" to="127497306#3"/>
    <trip id="veh56" type="veh_passenger" depart="253.14" departLane="best" departSpeed="max" from="-665146715" to="665146714#4"/>
    <trip id="veh57" type="veh_passenger" depart="257.66" departLane="best" from="221348491#0" to="665146714#4"/>
    <trip id="veh58" type="veh_passenger" depart="262.19" departLane="best" departSpeed="max" from="585506249#0" to="127497306#3"/>
    <trip id="veh59" type="veh_passenger" depart="266.71" departLane="best" departSpeed="max" from="585506249#0" to="127497306#3"/>
    <trip id="veh60" type="veh_passenger" depart="271.23" departLane="best" departSpeed="max" from="123936943#0" to="127497306#3"/>
    <trip id="veh61" type="veh_passenger" depart="275.75" departLane="best" departSpeed="max" from="77856541#0" to="665146714#4"/>
    <trip id="veh62" type="veh_passenger" depart="280.27" departLane="best" from="-221348491#0" to="127497306#3"/>
    <trip id="veh63" type="veh_passenger" depart="284.79" departLane="best" departSpeed="max" from="123936943#0" to="127497306#3"/>
    <trip id="veh64" type="veh_passenger" depart="289.31" departLane="best" departSpeed="max" from="585506249#0" to="127497306#3"/>
    <trip id="veh65" type="veh_passenger" depart="293.83" departLane="best" departSpeed="max" from="585506249#0" to="127497306#3"/>
    <trip id="veh66" type="veh_passenger" depart="298.35" departLane="best" departSpeed="max" from="-665146714#5" to="-665146714#2"/>
    <trip id="veh67" type="veh_passenger" depart="302.87" departLane="best" from="127497306#0" to="127497306#3"/>
    <trip id="veh68" type="veh_passenger" depart="307.39" departLane="best" departSpeed="max" from="-665146714#5" to="99952620#1"/>
    <trip id="veh69" type="veh_passenger" depart="311.91" departLane="best" from="126181921" to="127497306#3"/>
    <trip id="veh70" type="veh_passenger" depart="316.43" departLane="best" departSpeed="max" from="585506249#0" to="127497306#3"/>
    <trip id="veh71" type="veh_passenger" depart="320.95" departLane="best" departSpeed="max" from="-23559783" to="127497306#3"/>
    <trip id="veh72" type="veh_passenger" depart="325.47" departLane="best" from="-99952877" to="127497306#3"/>
    <trip id="veh73" type="veh_passenger" depart="329.99" departLane="best" departSpeed="max" from="-665146715" to="665146714#4"/>
    <trip id="veh74" type="veh_passenger" depart="334.51" departLane="best" departSpeed="max" from="585506249#0" to="-77856541#0"/>
    <trip id="veh75" type="veh_passenger" depart="339.03" departLane="best" departSpeed="max" from="123936943#0" to="127497306#3"/>
    <trip id="veh76" type="veh_passenger" depart="343.55" departLane="best" departSpeed="max" from="585506249#0" to="665146714#4"/>
    <trip id="veh77" type="veh_passenger" depart="348.07" departLane="best" departSpeed="max" from="-665146715" to="127497306#3"/>
    <trip id="veh78" type="veh_passenger" depart="352.59" departLane="best" departSpeed="max" from="123936943#0" to="665146714#4"/>
    <trip id="veh79" type="veh_passenger" depart="357.11" departLane="best" departSpeed="max" from="-665146715" to="127497306#3"/>
    <trip id="veh80" type="veh_passenger" depart="361.63" departLane="best" departSpeed="max" from="77856541#0" to="127497306#3"/>
    <trip id="veh81" type="veh_passenger" depart="366.15" departLane="best" from="45014977" to="127497306#3"/>
    <trip id="veh82" type="veh_passenger" depart="370.68" departLane="best" departSpeed="max" from="-665146714#5" to="665146710"/>
    <trip id="veh83" type="veh_passenger" depart="375.20" departLane="best" departSpeed="max" from="123936943#0" to="665146714#4"/>
    <trip id="veh84" type="veh_passenger" depart="379.72" departLane="best" departSpeed="max" from="585506249#0" to="-77856541#0"/>
    <trip id="veh85" type="veh_passenger" depart="384.24" departLane="best" from="127497306#2" to="127497306#3"/>
    <trip id="veh86" type="veh_passenger" depart="388.76" departLane="best" departSpeed="max" from="123936943#0" to="665146714#4"/>
    <trip id="veh87" type="veh_passenger" depart="393.28" departLane="best" from="665146713" to="127497306#3"/>
    <trip id="veh88" type="veh_passenger" depart="397.80" departLane="best" from="665146711" to="127497306#3"/>
    <trip id="veh89" type="veh_passenger" depart="402.32" departLane="best" departSpeed="max" from="585506249#0" to="127497306#3"/>
    <trip id="veh90" type="veh_passenger" depart="406.84" departLane="best" departSpeed="max" from="-23559783" to="665146714#4"/>
    <trip id="veh91" type="veh_passenger" depart="411.36" departLane="best" departSpeed="max" from="-23559783" to="127497306#3"/>
    <trip id="veh92" type="veh_passenger" depart="415.88" departLane="best" departSpeed="max" from="585506249#0" to="127497306#3"/>
    <trip id="veh93" type="veh_passenger" depart="420.40" departLane="best" departSpeed="max" from="585506249#0" to="127497306#3"/>
    <trip id="veh94" type="veh_passenger" depart="424.92" departLane="best" departSpeed="max" from="585506249#0" to="127497306#3"/>
    <trip id="veh95" type="veh_passenger" depart="429.44" departLane="best" departSpeed="max" from="-665146714#5" to="123936939"/>
    <trip id="veh96" type="veh_passenger" depart="433.96" departLane="best" from="126181921" to="665146714#4"/>
    <trip id="veh97" type="veh_passenger" depart="438.48" departLane="best" departSpeed="max" from="-665146714#5" to="-665146714#0"/>
    <trip id="veh98" type="veh_passenger" depart="443.00" departLane="best" from="129115572" to="127497306#3"/>
    <trip id="veh99" type="veh_passenger" depart="447.52" departLane="best" departSpeed="max" from="-665146714#5" to="-77856541#0"/>
    <trip id="veh100" type="veh_passenger" depart="452.04" departLane="best" from="45014977" to="127497306#3"/>
    <trip id="veh101" type="veh_passenger" depart="456.56" departLane="best" from="600437351" to="127497306#3"/>
    <trip id="veh102" type="veh_passenger" depart="461.08" departLane="best" from="82011072" to="127497306#3"/>
    <trip id="veh103" type="veh_passenger" depart="465.60" departLane="best" departSpeed="max" from="-665146714#5" to="-77856541#0"/>
    <trip id="veh104" type="veh_passenger" depart="470.12" departLane="best" departSpeed="max" from="585506249#0" to="127497306#3"/>
    <trip id="veh105" type="veh_passenger" depart="474.65" departLane="best" departSpeed="max" from="-665146715" to="665146714#4"/>
    <trip id="veh106" type="veh_passenger" depart="479.17" departLane="best" departSpeed="max" from="585506249#0" to="665146714#4"/>
    <trip id="veh107" type="veh_passenger" depart="483.69" departLane="best" departSpeed="max" from="123936943#0" to="127497306#3"/>
    <trip id="veh108" type="veh_passenger" depart="488.21" departLane="best" departSpeed="max" from="585506249#0" to="127497306#3"/>
    <trip id="veh109" type="veh_passenger" depart="492.73" departLane="best" from="665146717" to="127497306#3"/>
    <trip id="veh110" type="veh_passenger" depart="497.25" departLane="best" departSpeed="max" from="123936943#0" to="127497306#3"/>
    <trip id="veh111" type="veh_passenger" depart="501.77" departLane="best" departSpeed="max" from="123936943#0" to="665146714#4"/>
    <trip id="veh112" type="veh_passenger" depart="506.29" departLane="best" departSpeed="max" from="123936943#0" to="127497306#3"/>
    <trip id="veh113" type="veh_passenger" depart="510.81" departLane="best" departSpeed="max" from="-665146714#5" to="129115572"/>
    <trip id="veh114" type="veh_passenger" depart="515.33" departLane="best" from="585506249#1" to="127497306#3"/>
    <trip id="veh115" type="veh_passenger" depart="519.85" departLane="best" departSpeed="max" from="123936943#0" to="665146714#4"/>
    <trip id="veh116" type="veh_passenger" depart="524.37" departLane="best" departSpeed="max" from="585506249#0" to="127497306#3"/>
    <trip id="veh117" type="veh_passenger" depart="528.89" departLane="best" departSpeed="max" from="-665146714#5" to="600437351"/>
    <trip id="veh118" type="veh_passenger" depart="533.41" departLane="best" departSpeed="max" from="77856541#0" to="127497306#3"/>
    <trip id="veh119" type="veh_passenger" depart="537.93" departLane="best" from="123936914" to="127497306#3"/>
    <trip id="veh120" type="veh_passenger" depart="542.45" departLane="best" from="221348491#0" to="127497306#3"/>
    <trip id="veh121" type="veh_passenger" depart="546.97" departLane="best" departSpeed="max" from="123936943#0" to="127497306#3"/>
    <trip id="veh122" type="veh_passenger" depart="551.49" departLane="best" from="45014977" to="127497306#3"/>
    <trip id="veh123" type="veh_passenger" depart="556.01" departLane="best" departSpeed="max" from="585506249#0" to="665146714#4"/>
    <trip id="veh124" type="veh_passenger" depart="560.53" departLane="best" departSpeed="max" from="123936943#0" to="665146714#4"/>
    <trip id="veh125" type="veh_passenger" depart="565.05" departLane="best" departSpeed="max" from="123936943#0" to="127497306#3"/>
    <trip id="veh126" type="veh_passenger" depart="569.57" departLane="best" departSpeed="max" from="-665146714#5" to="-77856541#0"/>
    <trip id="veh127" type="veh_passenger" depart="574.09" departLane="best" departSpeed="max" from="-665146715" to="127497306#3"/>
    <trip id="veh128" type="veh_passenger" depart="578.62" departLane="best" from="665146714#2" to="665146714#4"/>
    <trip id="veh129" type="veh_passenger" depart="583.14" departLane="best" departSpeed="max" from="-665146714#5" to="23559783"/>
    <trip id="veh130" type="veh_passenger" depart="587.66" departLane="best" departSpeed="max" from="-665146714#5" to="23559783"/>
    <trip id="veh131" type="veh_passenger" depart="592.18" departLane="best" from="126181921" to="127497306#3"/>
    <trip id="veh132" type="veh_passenger" depart="596.70" departLane="best" from="82011072" to="127497306#3"/>
    <trip id="veh133" type="veh_passenger" depart="601.22" departLane="best" departSpeed="max" from="585506249#0" to="665146714#4"/>
    <trip id="veh134" type="veh_passenger" depart="605.74" departLane="best" departSpeed="max" from="585506249#0" to="127497306#3"/>
    <trip id="veh135" type="veh_passenger" depart="610.26" departLane="best" departSpeed="max" from="585506249#0" to="-77856541#0"/>
    <trip id="veh136" type="veh_passenger" depart="614.78" departLane="best" departSpeed="max" from="-665146714#5" to="126181921"/>
    <trip id="veh137" type="veh_passenger" depart="619.30" departLane="best" from="665146709" to="127497306#3"/>
    <trip id="veh138" type="veh_passenger" depart="623.82" departLane="best" departSpeed="max" from="77856541#0" to="99952620#1"/>
    <trip id="veh139" type="veh_passenger" depart="628.34" departLane="best" departSpeed="max" from="-23559783" to="127497306#3"/>
    <trip id="veh140" type="veh_passenger" depart="632.86" departLane="best" departSpeed="max" from="77856541#0" to="99952620#1"/>
    <trip id="veh141" type="veh_passenger" depart="637.38" departLane="best" departSpeed="max" from="-23559783" to="665146714#4"/>
    <trip id="veh142" type="veh_passenger" depart="641.90" departLane="best" departSpeed="max" from="-665146714#5" to="123936939"/>
    <trip id="veh143" type="veh_passenger" depart="646.42" departLane="best" from="600437351" to="127497306#3"/>
    <trip id="veh144" type="veh_passenger" depart="650.94" departLane="best" from="665146712" to="127497306#3"/>
    <trip id="veh145" type="veh_passenger" depart="655.46" departLane="best" departSpeed="max" from="-665146715" to="127497306#3"/>
    <trip id="veh146" type="veh_passenger" depart="659.98" departLane="best" departSpeed="max" from="-665146715" to="127497306#3"/>
    <trip id="veh147" type="veh_passenger" depart="664.50" departLane="best" departSpeed="max" from="-665146714#5" to="-77856541#0"/>
    <trip id="veh148" type="veh_passenger" depart="669.02" departLane="best" departSpeed="max" from="-23559783" to="127497306#3"/>
    <trip id="veh149" type="veh_passenger" depart="673.54" departLane="best" departSpeed="max" from="585506249#0" to="127497306#3"/>
    <trip id="veh150" type="veh_passenger" depart="678.06" departLane="best" departSpeed="max" from="123936943#0" to="127497306#3"/>
    <trip id="veh151" type="veh_passenger" depart="682.59" departLane="best" from="531098328" to="127497306#3"/>
    <trip id="veh152" type="veh_passenger" depart="687.11" departLane="best" departSpeed="max" from="585506249#0" to="127497306#3"/>
    <trip id="veh153" type="veh_passenger" depart="691.63" departLane="best" departSpeed="max" from="77856541#0" to="99952620#1"/>
    <trip id="veh154" type="veh_passenger" depart="696.15" departLane="best" from="-77856541#1" to="127497306#3"/>
    <trip id="veh155" type="veh_passenger" depart="700.67" departLane="best" departSpeed="max" from="585506249#0" to="127497306#3"/>
    <trip id="veh156" type="veh_passenger" depart="705.19" departLane="best" departSpeed="max" from="585506249#0" to="127497306#3"/>
    <trip id="veh157" type="veh_passenger" depart="709.71" departLane="best" departSpeed="max" from="123936943#0" to="127497306#3"/>
    <trip id="veh158" type="veh_passenger" depart="714.23" departLane="best" departSpeed="max" from="123936943#0" to="665146714#4"/>
    <trip id="veh159" type="veh_passenger" depart="718.75" departLane="best" departSpeed="max" from="-665146714#5" to="665146710"/>
    <trip id="veh160" type="veh_passenger" depart="723.27" departLane="best" departSpeed="max" from="585506249#0" to="127497306#3"/>
    <trip id="veh161" type="veh_passenger" depart="727.79" departLane="best" departSpeed="max" from="123936943#0" to="127497306#3"/>
    <trip id="veh162" type="veh_passenger" depart="732.31" departLane="best" departSpeed="max" from="123936943#0" to="127497306#3"/>
    <trip id="veh163" type="veh_passenger" depart="736.83" departLane="best" departSpeed="max" from="585506249#0" to="-77856541#0"/>
    <trip id="veh164" type="veh_passenger" depart="741.35" departLane="best" departSpeed="max" from="-23559783" to="127497306#3"/>
    <trip id="veh165" type="veh_passenger" depart="745.87" departLane="best" departSpeed="max" from="-665146715" to="127497306#3"/>
    <trip id="veh166" type="veh_passenger" depart="750.39" departLane="best" departSpeed="max" from="-665146714#5" to="23559783"/>
    <trip id="veh167" type="veh_passenger" depart="754.91" departLane="best" from="665146710" to="127497306#3"/>
    <trip id="veh168" type="veh_passenger" depart="759.43" departLane="best" departSpeed="max" from="123936943#0" to="127497306#3"/>
    <trip id="veh169" type="veh_passenger" depart="763.95" departLane="best" departSpeed="max" from="123936943#0" to="127497306#3"/>
    <trip id="veh171" type="veh_passenger" depart="772.99" departLane="best" from="665146708" to="127497306#3"/>
    <trip id="veh172" type="veh_passenger" depart="777.51" departLane="best" from="-665146714#3" to="127497306#3"/>
    <trip id="veh173" type="veh_passenger" depart="782.03" departLane="best" departSpeed="max" from="585506249#0" to="127497306#3"/>
    <trip id="veh174" type="veh_passenger" depart="786.56" departLane="best" departSpeed="max" from="123936943#0" to="127497306#3"/>
    <trip id="veh175" type="veh_passenger" depart="791.08" departLane="best" departSpeed="max" from="-665146714#5" to="-77856541#0"/>
    <trip id="veh176" type="veh_passenger" depart="795.60" departLane="best" departSpeed="max" from="123936943#0" to="665146714#4"/>
</routes>
