<?xml version="1.0" encoding="UTF-8"?>

<!-- generated on вторник,  4 февраля 2020 г. 14:48:27 by Eclipse SUMO netedit Version 1.4.0
<configuration xmlns:xsi="http://www.w3.org/2001/XMLSchema-instance" xsi:noNamespaceSchemaLocation="http://sumo.dlr.de/xsd/netconvertConfiguration.xsd">

    <input>
        <sumo-net-file value="circles.net.xml"/>
    </input>

    <output>
        <output-file value="circles.net.xml"/>
    </output>

    <processing>
        <geometry.min-radius.fix.railways value="false"/>
        <geometry.max-grade.fix value="false"/>
        <offset.disable-normalization value="true"/>
        <lefthand value="false"/>
    </processing>

    <junctions>
        <no-turnarounds value="true"/>
        <junctions.corner-detail value="5"/>
        <junctions.limit-turn-speed value="5.5"/>
        <rectangular-lane-cut value="false"/>
    </junctions>

    <pedestrian>
        <walkingareas value="false"/>
    </pedestrian>

    <report>
        <aggregate-warnings value="5"/>
    </report>

</configuration>
-->

<net version="1.3" junctionCornerDetail="5" limitTurnSpeed="5.50" xmlns:xsi="http://www.w3.org/2001/XMLSchema-instance" xsi:noNamespaceSchemaLocation="http://sumo.dlr.de/xsd/net_file.xsd">

    <location netOffset="0.00,0.00" convBoundary="-18.81,4.78,81.19,88.57" origBoundary="-10000000000.00,-10000000000.00,10000000000.00,10000000000.00" projParameter="!"/>

    <edge id=":gneJ0_0" function="internal">
        <lane id=":gneJ0_0_0" index="0" speed="3.93" length="2.16" shape="-17.10,68.66 -17.05,69.23 -16.84,69.69 -16.47,70.03 -15.95,70.27"/>
    </edge>
    <edge id=":gneJ1_0" function="internal">
        <lane id=":gneJ1_0_0" index="0" speed="4.05" length="1.57" shape="40.08,86.56 40.48,86.63 40.86,86.60 41.21,86.47 41.55,86.25"/>
    </edge>
    <edge id=":gneJ2_0" function="internal">
        <lane id=":gneJ2_0_0" index="0" speed="4.15" length="1.33" shape="77.20,56.44 77.44,56.20 77.61,55.92 77.72,55.62 77.77,55.28"/>
    </edge>
    <edge id=":gneJ3_0" function="internal">
        <lane id=":gneJ3_0_0" index="0" speed="3.91" length="2.41" shape="79.47,15.73 79.40,15.08 79.15,14.59 78.72,14.25 78.09,14.07"/>
    </edge>
    <edge id=":gneJ4_0" function="internal">
        <lane id=":gneJ4_0_0" index="0" speed="13.89" length="0.82" shape="23.58,6.48 23.33,6.45 23.17,6.45 23.00,6.49 22.77,6.57"/>
    </edge>
    <edge id=":gneJ5_0" function="internal">
        <lane id=":gneJ5_0_0" index="0" speed="3.98" length="1.86" shape="-14.01,20.90 -14.43,21.13 -14.75,21.45 -14.94,21.84 -15.02,22.32"/>
    </edge>

    <edge id="edge1" from="gneJ0" to="gneJ1" priority="-1">
        <lane id="edge1_0" index="0" speed="13.89" length="58.35" shape="-15.95,70.27 40.08,86.56"/>
    </edge>
    <edge id="edge2" from="gneJ1" to="gneJ2" priority="-1">
        <lane id="edge2_0" index="0" speed="13.89" length="46.47" shape="41.55,86.25 77.20,56.44"/>
    </edge>
    <edge id="edge3" from="gneJ2" to="gneJ3" priority="-1">
        <lane id="edge3_0" index="0" speed="13.89" length="39.59" shape="77.77,55.28 79.47,15.73"/>
    </edge>
    <edge id="edge4" from="gneJ3" to="gneJ4" priority="-1">
        <lane id="edge4_0" index="0" speed="13.89" length="55.04" shape="78.09,14.07 23.58,6.48"/>
    </edge>
    <edge id="edge5" from="gneJ4" to="gneJ5" priority="-1">
        <lane id="edge5_0" index="0" speed="13.89" length="39.47" shape="22.77,6.57 -14.01,20.90"/>
    </edge>
    <edge id="edge6" from="gneJ5" to="gneJ0" priority="-1">
        <lane id="edge6_0" index="0" speed="13.89" length="46.38" shape="-15.02,22.32 -17.10,68.66"/>
    </edge>

    <junction id="gneJ0" type="priority" x="-18.81" y="71.10" incLanes="edge6_0" intLanes=":gneJ0_0_0" shape="-16.39,71.80 -15.50,68.73 -18.70,68.59 -18.49,70.06 -18.18,70.65 -17.72,71.13 -17.13,71.52">
        <request index="0" response="0" foes="0" cont="0"/>
    </junction>
    <junction id="gneJ1" type="priority" x="41.27" y="88.57" incLanes="edge1_0" intLanes=":gneJ1_0_0" shape="42.58,87.48 40.53,85.02 39.63,88.09 40.69,88.24 41.19,88.18 41.67,88.03 42.13,87.80">
        <request index="0" response="0" foes="0" cont="0"/>
    </junction>
    <junction id="gneJ2" type="priority" x="79.31" y="56.76" incLanes="edge2_0" intLanes=":gneJ2_0_0" shape="79.37,55.35 76.17,55.21 78.23,57.67 78.84,57.01 79.05,56.63 79.22,56.23 79.32,55.80">
        <request index="0" response="0" foes="0" cont="0"/>
    </junction>
    <junction id="gneJ3" type="priority" x="81.19" y="12.89" incLanes="edge3_0" intLanes=":gneJ3_0_0" shape="78.31,12.49 77.87,15.66 81.07,15.80 80.81,14.14 80.44,13.52 79.90,13.03 79.19,12.69">
        <request index="0" response="0" foes="0" cont="0"/>
    </junction>
    <junction id="gneJ4" type="priority" x="22.97" y="4.78" incLanes="edge4_0" intLanes=":gneJ4_0_0" shape="23.35,8.06 23.80,4.90 23.19,4.83 22.98,4.84 22.77,4.88 22.52,4.96 22.19,5.08">
        <request index="0" response="0" foes="0" cont="0"/>
    </junction>
    <junction id="gneJ5" type="priority" x="-16.53" y="20.17" incLanes="edge5_0" intLanes=":gneJ5_0_0" shape="-13.43,22.40 -14.59,19.41 -15.68,20.07 -16.07,20.50 -16.36,21.01 -16.54,21.59 -16.62,22.25">
        <request index="0" response="0" foes="0" cont="0"/>
    </junction>

    <connection from="edge1" to="edge2" fromLane="0" toLane="0" via=":gneJ1_0_0" dir="r" state="M"/>
    <connection from="edge2" to="edge3" fromLane="0" toLane="0" via=":gneJ2_0_0" dir="r" state="M"/>
    <connection from="edge3" to="edge4" fromLane="0" toLane="0" via=":gneJ3_0_0" dir="r" state="M"/>
    <connection from="edge4" to="edge5" fromLane="0" toLane="0" via=":gneJ4_0_0" dir="s" state="M"/>
    <connection from="edge5" to="edge6" fromLane="0" toLane="0" via=":gneJ5_0_0" dir="r" state="M"/>
    <connection from="edge6" to="edge1" fromLane="0" toLane="0" via=":gneJ0_0_0" dir="r" state="M"/>

    <connection from=":gneJ0_0" to="edge1" fromLane="0" toLane="0" dir="r" state="M"/>
    <connection from=":gneJ1_0" to="edge2" fromLane="0" toLane="0" dir="r" state="M"/>
    <connection from=":gneJ2_0" to="edge3" fromLane="0" toLane="0" dir="r" state="M"/>
    <connection from=":gneJ3_0" to="edge4" fromLane="0" toLane="0" dir="r" state="M"/>
    <connection from=":gneJ4_0" to="edge5" fromLane="0" toLane="0" dir="s" state="M"/>
    <connection from=":gneJ5_0" to="edge6" fromLane="0" toLane="0" dir="r" state="M"/>

</net>
